geometry optimzed in LAMMPS
_audit_creation_date              2020-11-30 
_audit_creation_method            'lammps2cif' 
_symmetry_space_group_name_H-M    'P1' 
_symmetry_Int_Tables_number       1 
_symmetry_cell_setting            triclinic 
loop_ 
_symmetry_equiv_pos_as_xyz 
  x,y,z 
_cell_length_a                    78.73567231 
_cell_length_b                    78.7414991285402 
_cell_length_c                    78.64800685523151 
_cell_angle_alpha                 89.84806137419173 
_cell_angle_beta                  89.91144227431268 
_cell_angle_gamma                 90.16257648042976 
loop_ 
_atom_site_label 
_atom_site_type_symbol 
_atom_site_fract_x 
_atom_site_fract_y 
_atom_site_fract_z 
_atom_site_charge 
Zn1        Zn  0.49888049  0.49539575  0.02320416     1.49700
Zn2        Zn  0.49924651  0.52347774  0.99358725     1.49400
Zn3        Zn  0.52785928  0.49454434  0.99468605     1.49100
Zn4        Zn  0.48928681  0.48441259  0.98518159     1.49500
O5          O  0.50375944  0.49945330  0.99907601    -1.82800
O6          O  0.49155880  0.51681701  0.03486583    -0.73400
O7          O  0.52069640  0.53554573  0.98538783    -0.73200
O8          O  0.53954764  0.48516306  0.01563724    -0.72700
O9          O  0.49044850  0.53626155  0.01436077    -0.73400
O10         O  0.51970545  0.48741123  0.03562488    -0.73000
O11         O  0.54069020  0.51581309  0.98777010    -0.73600
O12         O  0.50386787  0.46922940  0.97005378    -0.73000
O13         O  0.48164022  0.52525885  0.97501839    -0.73700
O14         O  0.53031796  0.47746791  0.97571913    -0.73100
O15         O  0.47388033  0.49856495  0.96981726    -0.73600
O16         O  0.47430025  0.46929390  0.00014329    -0.73500
O17         O  0.48034784  0.47774425  0.02640245    -0.73300
C18         C  0.48857086  0.53189317  0.02988290     0.78500
C19         C  0.53617009  0.53093084  0.98422473     0.79000
C20         C  0.53474819  0.48371594  0.03105060     0.78000
C21         C  0.51985245  0.46828800  0.96747281     0.78300
C22         C  0.47255311  0.51449812  0.96704907     0.79500
C23         C  0.47202789  0.46834470  0.01619347     0.78500
Zn24       Zn  0.48622485  0.98666294  0.48431965     1.49700
Zn25       Zn  0.52435744  0.99599705  0.49482182     1.49400
Zn26       Zn  0.49608870  0.02541037  0.49352053     1.49100
Zn27       Zn  0.49455909  0.99670355  0.52313010     1.49500
O28         O  0.50026257  0.00125332  0.49899179    -1.82800
O29         O  0.50071617  0.97046211  0.47041537    -0.73400
O30         O  0.53750169  0.01699892  0.48766886    -0.73200
O31         O  0.47831658  0.02770028  0.47469984    -0.72700
O32         O  0.52717923  0.97850686  0.47607816    -0.73400
O33         O  0.47282255  0.00093648  0.46748212    -0.73000
O34         O  0.51784146  0.03704699  0.48509726    -0.73600
O35         O  0.48547071  0.01809050  0.53464768    -0.73000
O36         O  0.53538374  0.98679632  0.51618887    -0.73700
O37         O  0.48788314  0.03805374  0.51468420    -0.73100
O38         O  0.51554412  0.98921951  0.53621019    -0.73600
O39         O  0.47679287  0.97775019  0.52528810    -0.73500
O40         O  0.46979430  0.97245243  0.49841429    -0.73300
C41         C  0.51667778  0.96919246  0.46802540     0.78500
C42         C  0.53323943  0.03214477  0.48391424     0.79000
C43         C  0.47074325  0.01685407  0.46532204     0.78000
C44         C  0.48405840  0.03351932  0.52982391     0.78300
C45         C  0.53058354  0.98536052  0.53161254     0.79500
C46         C  0.46788950  0.96980703  0.51431386     0.78500
Zn47       Zn  0.01641993  0.51261027  0.51130090     1.49700
Zn48       Zn  0.00441773  0.50427682  0.47297779     1.49400
Zn49       Zn  0.00524019  0.47465638  0.50157674     1.49100
Zn50       Zn  0.97712977  0.50413548  0.50329325     1.49500
O51         O  0.00081908  0.49891331  0.49727108    -1.82800
O52         O  0.03239226  0.52652343  0.49647439    -0.73400
O53         O  0.01176261  0.48315943  0.45993638    -0.73200
O54         O  0.02333896  0.47141937  0.51959344    -0.72700
O55         O  0.02302791  0.52192530  0.47021193    -0.73400
O56         O  0.03076347  0.49766448  0.52682150    -0.73000
O57         O  0.01322543  0.46311666  0.47989718    -0.73600
O58         O  0.96489352  0.48321408  0.51202332    -0.73000
O59         O  0.98299835  0.51372656  0.46196812    -0.73700
O60         O  0.98412499  0.46263861  0.51055453    -0.73100
O61         O  0.96393525  0.51249608  0.48280704    -0.73600
O62         O  0.97608545  0.52251066  0.52141418    -0.73500
O63         O  0.00317050  0.52908561  0.52610958    -0.73300
C64         C  0.03315006  0.52924953  0.48050102     0.78500
C65         C  0.01502921  0.46794795  0.46449549     0.79000
C66         C  0.03212398  0.48161437  0.52856972     0.78000
C67         C  0.96920001  0.46776999  0.51414277     0.78300
C68         C  0.96791677  0.51591443  0.46746719     0.79500
C69         C  0.98738641  0.53134796  0.52895681     0.78500
Zn70       Zn  0.02892132  0.99368275  0.99533974     1.49700
Zn71       Zn  0.00032533  0.02302610  0.99448943     1.49400
Zn72       Zn  0.99041987  0.98472883  0.98500908     1.49100
Zn73       Zn  0.99882244  0.99436601  0.02376261     1.49500
O74         O  0.00471292  0.99896137  0.99972044    -1.82800
O75         O  0.04172279  0.01480460  0.98669198    -0.73400
O76         O  0.98279045  0.02548144  0.97553609    -0.73200
O77         O  0.00472729  0.97086334  0.96876500    -0.72700
O78         O  0.02191330  0.03488883  0.98703005    -0.73400
O79         O  0.03129834  0.97542339  0.97715521    -0.73000
O80         O  0.97419361  0.99895808  0.97094924    -0.73600
O81         O  0.98092214  0.97551993  0.02579783    -0.73000
O82         O  0.99160926  0.03552129  0.01537547    -0.73700
O83         O  0.97643739  0.96820139  0.99888559    -0.73100
O84         O  0.98944060  0.01549470  0.03525399    -0.73600
O85         O  0.02004399  0.98716529  0.03684049    -0.73500
O86         O  0.04032749  0.98527158  0.01715334    -0.73300
C87         C  0.03714897  0.03018191  0.98432916     0.78500
C88         C  0.97315321  0.01484503  0.96801475     0.79000
C89         C  0.02061030  0.96806906  0.96745399     0.78000
C90         C  0.97359651  0.96623231  0.01471299     0.78300
C91         C  0.98776222  0.03087948  0.03044787     0.79500
C92         C  0.03531375  0.98379411  0.03254595     0.78500
Zn93       Zn  0.48447777  0.76479834  0.25950312     1.49700
Zn94       Zn  0.52352624  0.75453964  0.25063936     1.49400
Zn95       Zn  0.49448406  0.72612298  0.25019817     1.49100
Zn96       Zn  0.49535341  0.75603396  0.22138385     1.49500
O97         O  0.49942984  0.75035708  0.24545714    -1.82800
O98         O  0.49884598  0.78006155  0.27480457    -0.73400
O99         O  0.53547896  0.73304445  0.25818262    -0.73200
O100        O  0.47576383  0.72372581  0.26797309    -0.72700
O101        O  0.52545412  0.77192675  0.26959247    -0.73400
O102        O  0.46874208  0.75034691  0.27419026    -0.73000
O103        O  0.51517071  0.71344081  0.25913043    -0.73600
O104        O  0.48677365  0.73510500  0.20915236    -0.73000
O105        O  0.53648185  0.76294157  0.22981238    -0.73700
O106        O  0.48693925  0.71432336  0.22845242    -0.73100
O107        O  0.51688221  0.76442274  0.20955849    -0.73600
O108        O  0.47745278  0.77434590  0.21861041    -0.73500
O109        O  0.46904699  0.77967544  0.24502090    -0.73300
C110        C  0.51479385  0.78110724  0.27761105     0.78500
C111        C  0.53060551  0.71789044  0.26115974     0.79000
C112        C  0.46675612  0.73438078  0.27616932     0.78000
C113        C  0.48427128  0.71964046  0.21334938     0.78300
C114        C  0.53218748  0.76622306  0.21453392     0.79500
C115        C  0.46791394  0.78218586  0.22904672     0.78500
Zn116      Zn  0.48304515  0.26546415  0.76273916     1.49700
Zn117      Zn  0.49395276  0.25596985  0.72468864     1.49400
Zn118      Zn  0.52158444  0.25472523  0.75454604     1.49100
Zn119      Zn  0.49159766  0.22682010  0.75376373     1.49500
O120        O  0.49755742  0.25067975  0.74892752    -1.82800
O121        O  0.46665748  0.27872852  0.74782434    -0.73400
O122        O  0.51575874  0.26391027  0.71305929    -0.73200
O123        O  0.52406260  0.27339551  0.77225078    -0.72700
O124        O  0.47626639  0.27414492  0.72164197    -0.73400
O125        O  0.49746372  0.28210653  0.77604516    -0.73000
O126        O  0.53490213  0.26186462  0.73370429    -0.73600
O127        O  0.51211932  0.21402872  0.76281489    -0.73000
O128        O  0.48472738  0.23527788  0.71239776    -0.73700
O129        O  0.53274905  0.23337452  0.76328322    -0.73100
O130        O  0.48348785  0.21505794  0.73221884    -0.73600
O131        O  0.47307820  0.22504783  0.77190926    -0.73500
O132        O  0.46907768  0.25184272  0.77974237    -0.73300
C133        C  0.46595933  0.28128481  0.73181849     0.78500
C134        C  0.53100971  0.26522025  0.71835246     0.79000
C135        C  0.51332349  0.28340078  0.77906354     0.78000
C136        C  0.52746441  0.21827671  0.76581978     0.78300
C137        C  0.48128531  0.22009864  0.71694562     0.79500
C138        C  0.46599579  0.23603081  0.78146355     0.78500
Zn139      Zn  0.26359868  0.48777120  0.76092781     1.49700
Zn140      Zn  0.25413146  0.52618079  0.75003748     1.49400
Zn141      Zn  0.25085160  0.49557837  0.72290289     1.49100
Zn142      Zn  0.22465548  0.49836104  0.75417026     1.49500
O143        O  0.24835457  0.50197934  0.74700590    -1.82800
O144        O  0.27976871  0.50249964  0.77455475    -0.73400
O145        O  0.26213786  0.53654672  0.72769619    -0.73200
O146        O  0.26808404  0.47685775  0.71993103    -0.72700
O147        O  0.27272869  0.52904821  0.76792618    -0.73400
O148        O  0.27760171  0.47200068  0.74607695    -0.73000
O149        O  0.25915225  0.51573675  0.70882061    -0.73600
O150        O  0.21020163  0.48959539  0.73460846    -0.73000
O151        O  0.23365116  0.53971311  0.75803713    -0.73700
O152        O  0.22860913  0.48656098  0.71335504    -0.73100
O153        O  0.21397693  0.52003778  0.76312957    -0.73600
O154        O  0.22343989  0.48092228  0.77295448    -0.73500
O155        O  0.25014280  0.47319386  0.77776807    -0.73300
C156        C  0.28170615  0.51848628  0.77631993     0.78500
C157        C  0.26326404  0.53097562  0.71251397     0.79000
C158        C  0.27776269  0.46893252  0.73016048     0.78000
C159        C  0.21364276  0.48511674  0.71942399     0.78300
C160        C  0.21891767  0.53546260  0.76330453     0.79500
C161        C  0.23429153  0.47204660  0.78100120     0.78500
Zn162      Zn  0.39193551  0.38293659  0.86200064     1.49700
Zn163      Zn  0.39138389  0.35350207  0.89042891     1.49400
Zn164      Zn  0.36417877  0.38260149  0.89102161     1.49100
Zn165      Zn  0.36244366  0.35519348  0.86158905     1.49500
O166        O  0.37756823  0.36844760  0.87618645    -1.82800
O167        O  0.41635041  0.37817952  0.86647830    -0.73400
O168        O  0.38747970  0.35728986  0.91559359    -0.73200
O169        O  0.36781557  0.40708660  0.88633609    -0.72700
O170        O  0.41613925  0.35729067  0.88559691    -0.73400
O171        O  0.38791371  0.40769376  0.86651568    -0.73000
O172        O  0.36896099  0.37845943  0.91547222    -0.73600
O173        O  0.33772238  0.35932581  0.86702880    -0.73000
O174        O  0.38616713  0.32914960  0.88531485    -0.73700
O175        O  0.33976329  0.37816058  0.88788408    -0.73100
O176        O  0.36709027  0.33038642  0.86449340    -0.73600
O177        O  0.36610323  0.36072248  0.83695599    -0.73500
O178        O  0.38759412  0.37905866  0.83711162    -0.73300
C179        C  0.42406711  0.36760778  0.87594008     0.78500
C180        C  0.37816173  0.36789823  0.92342706     0.79000
C181        C  0.37763684  0.41522643  0.87642242     0.78000
C182        C  0.33092850  0.36893903  0.87808117     0.78300
C183        C  0.37655241  0.32195491  0.87450156     0.79500
C184        C  0.37672087  0.37014231  0.82915585     0.78500
N185        N  0.20894303  0.38007598  0.88003537    -0.02100
C186        C  0.20032295  0.39242152  0.87160955     0.00500
C187        C  0.18430379  0.39401529  0.87883599    -0.22400
C188        C  0.18345729  0.38271570  0.89232608    -0.22600
C189        C  0.19882484  0.37434387  0.89275610     0.00400
H190        H  0.17452935  0.40297636  0.87531212     0.14200
H191        H  0.17291770  0.38105546  0.90102275     0.14200
N192        N  0.37794275  0.53776691  0.87145588    -0.02100
C193        C  0.38687750  0.54762314  0.88241497     0.00500
C194        C  0.38278994  0.56448001  0.87955699    -0.22400
C195        C  0.37083811  0.56476148  0.86664746    -0.22600
C196        C  0.36802272  0.54807132  0.86181222     0.00400
H197        H  0.38767067  0.57541293  0.88628902     0.14200
H198        H  0.36494168  0.57600018  0.86140486     0.14200
N199        N  0.54636250  0.37605859  0.87052229    -0.02100
C200        C  0.55581194  0.38557732  0.88133704     0.00500
C201        C  0.57285588  0.38239582  0.87843460    -0.22400
C202        C  0.57370359  0.37040463  0.86562468    -0.22600
C203        C  0.55717236  0.36674226  0.86086719     0.00400
H204        H  0.58354309  0.38783524  0.88514299     0.14200
H205        H  0.58518169  0.36496256  0.86040959     0.14200
N206        N  0.36608548  0.36828640  0.70644983    -0.02100
C207        C  0.35722562  0.37923315  0.69652156     0.00500
C208        C  0.36071200  0.37585355  0.67959031    -0.22400
C209        C  0.37222877  0.36260790  0.67930030    -0.22600
C210        C  0.37527046  0.35812087  0.69604600     0.00400
H211        H  0.35579116  0.38250987  0.66861089     0.14200
H212        H  0.37774218  0.35692007  0.66807374     0.14200
N213        N  0.37819774  0.19925538  0.87795916    -0.02100
C214        C  0.36957874  0.18882235  0.88860996     0.00500
C215        C  0.37357675  0.17213157  0.88510928    -0.22400
C216        C  0.38494272  0.17247157  0.87165412    -0.22600
C217        C  0.38776448  0.18939302  0.86757550     0.00400
H218        H  0.36861284  0.16094435  0.89142762     0.14200
H219        H  0.39070199  0.16152905  0.86570497     0.14200
N220        N  0.38364107  0.36762215  0.04630824    -0.02100
C221        C  0.39144419  0.38045256  0.05484645     0.00500
C222        C  0.38598372  0.38018852  0.07165478    -0.22400
C223        C  0.37431983  0.36709676  0.07318769    -0.22600
C224        C  0.37321152  0.35959818  0.05739567     0.00400
H225        H  0.38961302  0.38881232  0.08169581     0.14200
H226        H  0.36720743  0.36367599  0.08447723     0.14200
Zn227      Zn  0.23859815  0.23586236  0.01257955     1.49700
Zn228      Zn  0.24899778  0.27463383  0.00585699     1.49400
Zn229      Zn  0.27771549  0.24499462  0.00460449     1.49100
Zn230      Zn  0.24948235  0.24767412  0.97509562     1.49500
O231        O  0.25377423  0.25083410  0.99952744    -1.82800
O232        O  0.22196947  0.24940927  0.02676296    -0.73400
O233        O  0.27024653  0.28553273  0.01542473    -0.73200
O234        O  0.27910504  0.22648544  0.02271497    -0.72700
O235        O  0.23031662  0.27623255  0.02376436    -0.73400
O236        O  0.25202984  0.22090286  0.02862410    -0.73000
O237        O  0.29041314  0.26584695  0.01351636    -0.73600
O238        O  0.27081578  0.23990593  0.96297287    -0.73000
O239        O  0.24140284  0.28858197  0.98525789    -0.73700
O240        O  0.28991611  0.23624608  0.98345423    -0.73100
O241        O  0.24221328  0.26984782  0.96415680    -0.73600
O242        O  0.23127214  0.22954275  0.97098719    -0.73500
O243        O  0.22491669  0.22057830  0.99705632    -0.73300
C244        C  0.22049557  0.26510750  0.03034787     0.78500
C245        C  0.28559230  0.28080810  0.01745037     0.79000
C246        C  0.26781309  0.21835705  0.03109376     0.78000
C247        C  0.28557176  0.23544328  0.96785477     0.78300
C248        C  0.23951624  0.28484598  0.96959365     0.79500
C249        C  0.22306012  0.21970015  0.98098406     0.78500
Zn250      Zn  0.74305569  0.50468901  0.27718424     1.49700
Zn251      Zn  0.74442313  0.47529573  0.24904522     1.49400
Zn252      Zn  0.73335018  0.51306157  0.23845369     1.49100
Zn253      Zn  0.77222025  0.50534354  0.24854879     1.49500
O254        O  0.74828829  0.49960851  0.25330144    -1.82800
O255        O  0.73520204  0.48349461  0.28984483    -0.73400
O256        O  0.72656084  0.47166365  0.23086066    -0.73200
O257        O  0.71626113  0.52672332  0.25212677    -0.67900
O258        O  0.73695832  0.46306993  0.27044892    -0.73400
O259        O  0.72429425  0.52188762  0.27878070    -0.73000
O260        O  0.72041800  0.49785243  0.22224782    -0.73600
O261        O  0.77400109  0.52415435  0.23081509    -0.73000
O262        O  0.76585474  0.46405987  0.24057294    -0.73700
O263        O  0.74708854  0.52980746  0.22445368    -0.73100
O264        O  0.78487267  0.48495346  0.23935281    -0.73600
O265        O  0.78420939  0.51336971  0.27005961    -0.73500
O266        O  0.76357681  0.51457564  0.28937295    -0.73300
C267        C  0.73365873  0.46796803  0.28551834     0.78500
C268        C  0.71867445  0.48180195  0.22102009     0.79000
C269        C  0.71472101  0.52927113  0.26805380     0.78000
C270        C  0.76293016  0.53262998  0.22258824     0.78300
C271        C  0.78072876  0.46946976  0.23709769     0.79500
C272        C  0.77902278  0.51686000  0.28502528     0.78500
Zn273      Zn  0.26177085  0.76984282  0.48492739     1.49700
Zn274      Zn  0.25122810  0.75922476  0.52309649     1.49400
Zn275      Zn  0.22322020  0.75907664  0.49380432     1.49100
Zn276      Zn  0.25259068  0.73068709  0.49340501     1.49500
O277        O  0.24728733  0.75465342  0.49876985    -1.82800
O278        O  0.27674878  0.78472890  0.50002695    -0.73400
O279        O  0.22971434  0.76649286  0.53527092    -0.73200
O280        O  0.22080128  0.77881760  0.47746207    -0.72700
O281        O  0.26886245  0.77778868  0.52632318    -0.73400
O282        O  0.24724911  0.78498809  0.46946556    -0.73000
O283        O  0.20993641  0.76441291  0.51527513    -0.73600
O284        O  0.23149189  0.71836594  0.48455190    -0.73000
O285        O  0.25936412  0.73785322  0.53501842    -0.73700
O286        O  0.21191830  0.73861570  0.48305837    -0.73100
O287        O  0.26090819  0.71829181  0.51469058    -0.73600
O288        O  0.27109458  0.72911125  0.47513689    -0.73500
O289        O  0.27772654  0.75614831  0.47013147    -0.73300
C290        C  0.27801729  0.78646715  0.51610788     0.78500
C291        C  0.21425800  0.76733378  0.53059742     0.79000
C292        C  0.23123381  0.78733567  0.46840930     0.78000
C293        C  0.21653131  0.72330105  0.48075537     0.78300
C294        C  0.26263121  0.72276233  0.53019310     0.79500
C295        C  0.27994765  0.74035788  0.46742599     0.78500
Zn296      Zn  0.61001191  0.63939606  0.11011920     1.49700
Zn297      Zn  0.63889681  0.64165207  0.13837346     1.49400
Zn298      Zn  0.61265020  0.61054037  0.13838405     1.49100
Zn299      Zn  0.64076526  0.61310921  0.10932518     1.49500
O300        O  0.62562928  0.62618308  0.12403214    -1.82800
O301        O  0.61285405  0.66445860  0.11431009    -0.73400
O302        O  0.63362940  0.63821157  0.16329483    -0.73200
O303        O  0.58769672  0.61211860  0.13374314    -0.72700
O304        O  0.63405010  0.66615831  0.13285536    -0.73400
O305        O  0.58574881  0.63302852  0.11485949    -0.73000
O306        O  0.61523547  0.61673349  0.16284496    -0.73600
O307        O  0.63708548  0.58797073  0.11274124    -0.73000
O308        O  0.66375016  0.63791640  0.13493751    -0.73700
O309        O  0.61932253  0.58606481  0.13465832    -0.73100
O310        O  0.66522643  0.61812068  0.11485466    -0.73600
O311        O  0.63662734  0.61822721  0.08445682    -0.73500
O312        O  0.61414412  0.63521693  0.08529251    -0.73300
C313        C  0.62305764  0.67317811  0.12332218     0.78500
C314        C  0.62367956  0.62790770  0.17087916     0.79000
C315        C  0.57888499  0.62182432  0.12434470     0.78000
C316        C  0.62863799  0.57913772  0.12340122     0.78300
C317        C  0.67231850  0.62821731  0.12530808     0.79500
C318        C  0.62517543  0.62685375  0.07698773     0.78500
N319        N  0.62707082  0.62625529  0.95366713    -0.02100
C320        C  0.63604612  0.63704916  0.94351343     0.00500
C321        C  0.63040445  0.63545333  0.92690467    -0.22400
C322        C  0.61734184  0.62372650  0.92703007    -0.22600
C323        C  0.61560065  0.61826403  0.94362996     0.00400
H324        H  0.63487103  0.64247391  0.91592208     0.14200
H325        H  0.60987954  0.61971676  0.91620959     0.14200
N326        N  0.62876918  0.45583841  0.12220726    -0.02100
C327        C  0.62156526  0.44519113  0.11081853     0.00500
C328        C  0.62806613  0.42903139  0.11271862    -0.22400
C329        C  0.63968970  0.42983146  0.12581431    -0.22600
C330        C  0.64010893  0.44654988  0.13126654     0.00400
H331        H  0.62487552  0.41793057  0.10528292     0.14200
H332        H  0.64750801  0.41947624  0.13030600     0.14200
N333        N  0.79497053  0.62347586  0.12772393    -0.02100
C334        C  0.80462028  0.63319890  0.11709585     0.00500
C335        C  0.82160925  0.63004733  0.12039103    -0.22400
C336        C  0.82222237  0.61810087  0.13330177    -0.22600
C337        C  0.80561796  0.61430318  0.13773469     0.00400
H338        H  0.83247568  0.63563004  0.11404806     0.14200
H339        H  0.83362376  0.61285380  0.13886993     0.14200
N340        N  0.45596086  0.62384128  0.12150396    -0.02100
C341        C  0.44601894  0.61766081  0.10891974     0.00500
C342        C  0.43020428  0.62520618  0.10941243    -0.22400
C343        C  0.43053717  0.63654252  0.12277757    -0.22600
C344        C  0.44655899  0.63549193  0.12991415     0.00400
H345        H  0.41977255  0.62310210  0.10072111     0.14200
H346        H  0.42041323  0.64503294  0.12648959     0.14200
N347        N  0.62444482  0.79635121  0.12031649    -0.02100
C348        C  0.63398427  0.80646712  0.10999761     0.00500
C349        C  0.62798534  0.82296849  0.11086878    -0.22400
C350        C  0.61419685  0.82282133  0.12172978    -0.22600
C351        C  0.61235066  0.80631032  0.12741511     0.00400
H352        H  0.63279746  0.83390429  0.10401240     0.14200
H353        H  0.60644965  0.83361396  0.12516372     0.14200
N354        N  0.62048433  0.62438575  0.29349676    -0.02100
C355        C  0.60880193  0.63124135  0.30405642     0.00500
C356        C  0.61031027  0.62418367  0.32008164    -0.22400
C357        C  0.62345126  0.61258741  0.31921222    -0.22600
C358        C  0.62930002  0.61272421  0.30257842     0.00400
H359        H  0.60258442  0.62695565  0.33111468     0.14200
H360        H  0.62763864  0.60435070  0.32940165     0.14200
Zn361      Zn  0.74008507  0.73513749  0.01532830     1.49700
Zn362      Zn  0.77801241  0.74634342  0.00540908     1.49400
Zn363      Zn  0.74822390  0.74413850  0.97668360     1.49100
Zn364      Zn  0.74843766  0.77404497  0.00503537     1.49500
O365        O  0.75371385  0.74997267  0.00055586    -1.82800
O366        O  0.75503265  0.72034060  0.03029059    -0.73400
O367        O  0.78992484  0.73858745  0.98391432    -0.73200
O368        O  0.72968723  0.72609246  0.97494454    -0.72700
O369        O  0.78136018  0.72823242  0.02366708    -0.73400
O370        O  0.72413032  0.72002050  0.00195127    -0.73000
O371        O  0.76930795  0.73518165  0.96480097    -0.73600
O372        O  0.74028579  0.78538673  0.98338847    -0.73000
O373        O  0.78966044  0.76786466  0.01386083    -0.73700
O374        O  0.73963381  0.76499002  0.96384778    -0.73100
O375        O  0.76924822  0.78725717  0.01308867    -0.73600
O376        O  0.72986138  0.77609494  0.02310908    -0.73500
O377        O  0.72484560  0.74915462  0.03015664    -0.73300
C378        C  0.77106171  0.71908570  0.03226770     0.78500
C379        C  0.78488745  0.73422702  0.96914159     0.79000
C380        C  0.72127880  0.71791853  0.98616639     0.78000
C381        C  0.73731360  0.78039375  0.96827021     0.78300
C382        C  0.78458379  0.78305773  0.01609614     0.79500
C383        C  0.72182742  0.76493757  0.03178668     0.78500
Zn384      Zn  0.13694122  0.60841410  0.61037752     1.49700
Zn385      Zn  0.13766534  0.63578989  0.64006888     1.49400
Zn386      Zn  0.10815995  0.63665415  0.61173909     1.49100
Zn387      Zn  0.10914019  0.60719760  0.63975247     1.49500
O388        O  0.12293113  0.62208734  0.62546612    -1.82800
O389        O  0.16142882  0.61412644  0.61317033    -0.73400
O390        O  0.13384895  0.66040948  0.63560513    -0.73200
O391        O  0.11152961  0.63243698  0.58659964    -0.72700
O392        O  0.16243128  0.63175720  0.63513322    -0.73400
O393        O  0.13148752  0.61257127  0.58578098    -0.73000
O394        O  0.11360783  0.66129385  0.61592305    -0.73600
O395        O  0.08435467  0.61115362  0.63586068    -0.73000
O396        O  0.13330341  0.63134362  0.66494769    -0.73700
O397        O  0.08343211  0.63251532  0.61733338    -0.73100
O398        O  0.11365350  0.61105733  0.66451784    -0.73600
O399        O  0.11424230  0.58272362  0.63534015    -0.73500
O400        O  0.13443466  0.58357776  0.61557903    -0.73300
C401        C  0.16976738  0.62320953  0.62356341     0.78500
C402        C  0.12417682  0.66868264  0.62568505     0.79000
C403        C  0.12133619  0.62265108  0.57828979     0.78000
C404        C  0.07603005  0.62173050  0.62693508     0.78300
C405        C  0.12346144  0.62099673  0.67261532     0.79500
C406        C  0.12486797  0.57531904  0.62570889     0.78500
N407        N  0.95304238  0.62259456  0.62345496    -0.02100
C408        C  0.94233917  0.63160719  0.63360631     0.00500
C409        C  0.92577659  0.62682788  0.63018554    -0.22400
C410        C  0.92641277  0.61452186  0.61777136    -0.22600
C411        C  0.94335340  0.61209057  0.61370461     0.00400
H412        H  0.91437330  0.63161835  0.63615857     0.14200
H413        H  0.91555738  0.60811780  0.61228977     0.14200
N414        N  0.12131179  0.79133511  0.62490808    -0.02100
C415        C  0.13243132  0.80227807  0.61764913     0.00500
C416        C  0.12984305  0.81842559  0.62390900    -0.22400
C417        C  0.11657470  0.81724052  0.63540644    -0.22600
C418        C  0.11167020  0.80030709  0.63603223     0.00400
H419        H  0.13692664  0.82977546  0.62065579     0.14200
H420        H  0.11160095  0.82755356  0.64296534     0.14200
N421        N  0.13005597  0.62258098  0.45527441    -0.02100
C422        C  0.13746217  0.63406921  0.44478003     0.00500
C423        C  0.13109978  0.63237948  0.42853138    -0.22400
C424        C  0.11935581  0.61930777  0.42913589    -0.22600
C425        C  0.11878897  0.61352464  0.44582271     0.00400
H426        H  0.13461562  0.63978401  0.41745626     0.14200
H427        H  0.11197369  0.61472199  0.41850385     0.14200
N428        N  0.12585259  0.62583756  0.79549977    -0.02100
C429        C  0.13395086  0.61545969  0.80659384     0.00500
C430        C  0.12768550  0.61809022  0.82279438    -0.22400
C431        C  0.11542883  0.63060324  0.82148442    -0.22600
C432        C  0.11434002  0.63506738  0.80444398     0.00400
H433        H  0.13150706  0.61158820  0.83430144     0.14200
H434        H  0.10777578  0.63543481  0.83182083     0.14200
N435        N  0.12161726  0.45276679  0.62845332    -0.02100
C436        C  0.13218503  0.44160191  0.63613667     0.00500
C437        C  0.13016557  0.42570840  0.62903922    -0.22400
C438        C  0.11784993  0.42724741  0.61662664    -0.22600
C439        C  0.11290638  0.44414547  0.61628528     0.00400
H440        H  0.13710360  0.41430871  0.63227375     0.14200
H441        H  0.11359147  0.41720666  0.60828556     0.14200
N442        N  0.29260259  0.62733239  0.62098909    -0.02100
C443        C  0.30188591  0.61493380  0.62847388     0.00500
C444        C  0.31734719  0.61331492  0.62030400    -0.22400
C445        C  0.31745463  0.62507310  0.60724090    -0.22600
C446        C  0.30203590  0.63342258  0.60788664     0.00400
H447        H  0.32720615  0.60419619  0.62314509     0.14200
H448        H  0.32745404  0.62691986  0.59795945     0.14200
Zn449      Zn  0.99858340  0.74216390  0.77479094     1.49700
Zn450      Zn  0.97067484  0.74260523  0.74422756     1.49400
Zn451      Zn  0.99906896  0.77168643  0.74646637     1.49100
Zn452      Zn  0.00987408  0.73325910  0.73682441     1.49500
O453        O  0.99450364  0.74738781  0.75058006    -1.82800
O454        O  0.97725837  0.73223516  0.78549198    -0.73400
O455        O  0.95866690  0.76404817  0.73575377    -0.73200
O456        O  0.00838767  0.78296234  0.76759786    -0.72700
O457        O  0.95777607  0.73411215  0.76504647    -0.73400
O458        O  0.00540568  0.76343952  0.78787229    -0.73000
O459        O  0.97770920  0.78459607  0.73940888    -0.73600
O460        O  0.02454530  0.74816972  0.72160686    -0.73000
O461        O  0.96923239  0.72418213  0.72582736    -0.73700
O462        O  0.01660666  0.77453871  0.72783678    -0.73100
O463        O  0.99632770  0.71729608  0.72184327    -0.73600
O464        O  0.02569308  0.71884442  0.75146441    -0.73500
O465        O  0.01795908  0.72526772  0.77782875    -0.73300
C466        C  0.96205567  0.73029588  0.78022576     0.78500
C467        C  0.96285290  0.77971626  0.73515305     0.79000
C468        C  0.00956716  0.77837689  0.78310027     0.78000
C469        C  0.02572453  0.76418976  0.71940287     0.78300
C470        C  0.98060444  0.71519902  0.71856903     0.79500
C471        C  0.02742647  0.71716443  0.76750227     0.78500
Zn472      Zn  0.85891348  0.85106283  0.88989497     1.49700
Zn473      Zn  0.85885888  0.88202572  0.86321368     1.49400
Zn474      Zn  0.88663282  0.88061595  0.89228623     1.49100
Zn475      Zn  0.88805745  0.85385783  0.86227911     1.49500
O476        O  0.87301369  0.86688651  0.87692080    -1.82800
O477        O  0.83430077  0.85467784  0.88441888    -0.73400
O478        O  0.86264381  0.90663128  0.86887632    -0.73200
O479        O  0.87969641  0.87661067  0.91650218    -0.72700
O480        O  0.83410437  0.87675619  0.86668194    -0.73400
O481        O  0.86247663  0.85417110  0.91523365    -0.73000
O482        O  0.88415340  0.90552230  0.88710501    -0.73600
O483        O  0.91231980  0.86006402  0.86627615    -0.73000
O484        O  0.86424134  0.87925537  0.83831560    -0.73700
O485        O  0.91148084  0.87512616  0.89013733    -0.73100
O486        O  0.88283229  0.85802226  0.83777221    -0.73600
O487        O  0.88608925  0.82877386  0.86647551    -0.73500
O488        O  0.86412835  0.82679847  0.88413820    -0.73300
C489        C  0.82637996  0.86535229  0.87522898     0.78500
C490        C  0.87377861  0.91392178  0.87801843     0.79000
C491        C  0.87065242  0.86526768  0.92371335     0.78000
C492        C  0.91972886  0.86768289  0.87842400     0.78300
C493        C  0.87358571  0.86887088  0.83021733     0.79500
C494        C  0.87557199  0.81995948  0.87504294     0.78500
N495        N  0.87976268  0.87321880  0.04643487    -0.02100
C496        C  0.87202896  0.86196073  0.05705834     0.00500
C497        C  0.87708366  0.86472027  0.07360821    -0.22400
C498        C  0.88815006  0.87832255  0.07319880    -0.22600
C499        C  0.88975296  0.88326383  0.05635298     0.00400
H500        H  0.87298671  0.85778053  0.08478535     0.14200
H501        H  0.89463559  0.88375811  0.08402608     0.14200
N502        N  0.87497541  0.88005708  0.70757316    -0.02100
C503        C  0.86574161  0.88979402  0.69677151     0.00500
C504        C  0.86956130  0.88558756  0.68014710    -0.22400
C505        C  0.88144739  0.87268777  0.68082575    -0.22600
C506        C  0.88466416  0.86965156  0.69784095     0.00400
H507        H  0.86411092  0.89108398  0.66877980     0.14200
H508        H  0.88729040  0.86641950  0.67008705     0.14200
N509        N  0.87225293  0.69684917  0.87461456    -0.02100
C510        C  0.86262117  0.68667772  0.88471490     0.00500
C511        C  0.86765372  0.66996942  0.88305602    -0.22400
C512        C  0.88104830  0.66992900  0.87168778    -0.22600
C513        C  0.88349530  0.68657805  0.86660464     0.00400
H514        H  0.86253788  0.65909138  0.88978479     0.14200
H515        H  0.88813500  0.65894655  0.86750753     0.14200
N516        N  0.70303508  0.86924657  0.87287622    -0.02100
C517        C  0.69225737  0.87908545  0.86370423     0.00500
C518        C  0.67564065  0.87418967  0.86652965    -0.22400
C519        C  0.67616048  0.86082386  0.87788036    -0.22600
C520        C  0.69307615  0.85811168  0.88163177     0.00400
H521        H  0.66441213  0.87944500  0.86062254     0.14200
H522        H  0.66537255  0.85389197  0.88290917     0.14200
N523        N  0.04199855  0.87592602  0.86849787    -0.02100
C524        C  0.05138745  0.88733755  0.87749330     0.00500
C525        C  0.06825874  0.88618789  0.87253962    -0.22400
C526        C  0.06914607  0.87396295  0.86002817    -0.22600
C527        C  0.05287856  0.86779146  0.85791594     0.00400
H528        H  0.07877423  0.89374294  0.87715726     0.14200
H529        H  0.08043587  0.86997014  0.85328937     0.14200
N530        N  0.87400979  0.03721852  0.87658918    -0.02100
C531        C  0.86516793  0.04817523  0.86669112     0.00500
C532        C  0.87025764  0.06465814  0.86974271    -0.22400
C533        C  0.88277401  0.06380581  0.88196991    -0.22600
C534        C  0.88483899  0.04680494  0.88606168     0.00400
H535        H  0.86571324  0.07600341  0.86345070     0.14200
H536        H  0.88957611  0.07447727  0.88733363     0.14200
Zn537      Zn  0.60937968  0.11164732  0.61315331     1.49700
Zn538      Zn  0.63829653  0.11446670  0.64134257     1.49400
Zn539      Zn  0.63873977  0.13953715  0.60943190     1.49100
Zn540      Zn  0.61026759  0.14362685  0.63738300     1.49500
O541        O  0.62421752  0.12725263  0.62534267    -1.82800
O542        O  0.61470788  0.08739605  0.61917129    -0.73400
O543        O  0.66314834  0.11684575  0.63560591    -0.73200
O544        O  0.63415142  0.13223621  0.58552294    -0.72700
O545        O  0.63253114  0.08949782  0.64099871    -0.73400
O546        O  0.61215581  0.11455651  0.58794057    -0.73000
O547        O  0.66308722  0.13560767  0.61440492    -0.73600
O548        O  0.61541373  0.16749109  0.63037071    -0.73000
O549        O  0.63476815  0.12287932  0.66522628    -0.73700
O550        O  0.63563166  0.16477571  0.61086632    -0.73100
O551        O  0.61373730  0.14152167  0.66245663    -0.73600
O552        O  0.58566628  0.14002737  0.63319000    -0.73500
O553        O  0.58474275  0.11591413  0.61863470    -0.73300
C554        C  0.62353273  0.08064142  0.63092001     0.78500
C555        C  0.67090351  0.12619281  0.62488210     0.79000
C556        C  0.62284091  0.12275261  0.57894412     0.78000
C557        C  0.62584405  0.17393006  0.61981609     0.78300
C558        C  0.62406990  0.13315518  0.67160101     0.79500
C559        C  0.57736792  0.12816607  0.62612611     0.78500
N560        N  0.61778539  0.95747994  0.63115313    -0.02100
C561        C  0.60763757  0.94743826  0.62150463     0.00500
C562        C  0.61065185  0.93054308  0.62499286    -0.22400
C563        C  0.62298405  0.93017161  0.63740805    -0.22600
C564        C  0.62731776  0.94686799  0.64090785     0.00400
H565        H  0.60443068  0.91969280  0.61929496     0.14200
H566        H  0.62841273  0.91887844  0.64304949     0.14200
N567        N  0.62600297  0.12619978  0.45597486    -0.02100
C568        C  0.61433709  0.11912130  0.44541466     0.00500
C569        C  0.61633378  0.12556939  0.42915758    -0.22400
C570        C  0.62982000  0.13681352  0.42972329    -0.22600
C571        C  0.63545926  0.13697819  0.44633613     0.00400
H572        H  0.60883328  0.12242113  0.41808155     0.14200
H573        H  0.63469749  0.14433916  0.41926053     0.14200
N574        N  0.62399976  0.12900319  0.79430793    -0.02100
C575        C  0.63141803  0.11672022  0.80389865     0.00500
C576        C  0.62581388  0.11797816  0.82054987    -0.22400
C577        C  0.61428125  0.13114747  0.82104000    -0.22600
C578        C  0.61347716  0.13771158  0.80476611     0.00400
H579        H  0.62913775  0.10973492  0.83105263     0.14200
H580        H  0.60710605  0.13531010  0.83200182     0.14200
N581        N  0.45431426  0.12282307  0.62651026    -0.02100
C582        C  0.44374164  0.11294025  0.61713871     0.00500
C583        C  0.42704589  0.11725369  0.62034643    -0.22400
C584        C  0.42739368  0.13037150  0.63198903    -0.22600
C585        C  0.44428834  0.13345026  0.63565305     0.00400
H586        H  0.41584728  0.11158129  0.61474852     0.14200
H587        H  0.41650134  0.13662409  0.63754194     0.14200
N588        N  0.79348599  0.12245122  0.62827174    -0.02100
C589        C  0.80343609  0.13314937  0.61907788     0.00500
C590        C  0.82012886  0.13173319  0.62425263    -0.22400
C591        C  0.82039621  0.11958130  0.63695104    -0.22600
C592        C  0.80380149  0.11420781  0.63935640     0.00400
H593        H  0.83094416  0.13863812  0.61924887     0.14200
H594        H  0.83147307  0.11541743  0.64392219     0.14200
N595        N  0.62490310  0.29673794  0.62663307    -0.02100
C596        C  0.63584556  0.30704671  0.61811167     0.00500
C597        C  0.63334162  0.32376236  0.62273196    -0.22400
C598        C  0.62023639  0.32376475  0.63440854    -0.22600
C599        C  0.61537667  0.30702916  0.63662871     0.00400
H600        H  0.63992513  0.33478531  0.61774382     0.14200
H601        H  0.61482858  0.33476711  0.64057745     0.14200
Zn602      Zn  0.77007133  0.00388185  0.74810585     1.49700
Zn603      Zn  0.74153613  0.00413054  0.77759765     1.49400
Zn604      Zn  0.73129008  0.01415888  0.73998563     1.49100
Zn605      Zn  0.74048896  0.97535022  0.74852455     1.49500
O606        O  0.74595946  0.99927551  0.75352931    -1.82800
O607        O  0.78302376  0.01120804  0.76947058    -0.73400
O608        O  0.72376301  0.02235136  0.78081824    -0.73200
O609        O  0.74521612  0.03113779  0.72682660    -0.72700
O610        O  0.76282701  0.01204422  0.78925675    -0.73400
O611        O  0.77198571  0.02299651  0.73060755    -0.73000
O612        O  0.71480016  0.02749724  0.75457341    -0.73600
O613        O  0.72235328  0.97369119  0.72992149    -0.73000
O614        O  0.73299916  0.98319042  0.78980222    -0.73700
O615        O  0.71780254  0.00069231  0.72291673    -0.73100
O616        O  0.73186968  0.96332867  0.76977011    -0.73600
O617        O  0.76164821  0.96274219  0.74044813    -0.73500
O618        O  0.78162045  0.98272185  0.73863969    -0.73300
C619        C  0.77822282  0.01408251  0.78470935     0.78500
C620        C  0.71388762  0.02997491  0.77054683     0.79000
C621        C  0.76101916  0.03281255  0.72382806     0.78000
C622        C  0.71508890  0.98490743  0.72072068     0.78300
C623        C  0.72972630  0.96806111  0.78512519     0.79500
C624        C  0.77679539  0.96733915  0.73684674     0.78500
Zn625      Zn  0.76640982  0.26404056  0.49036535     1.49700
Zn626      Zn  0.75447438  0.22586599  0.50020319     1.49400
Zn627      Zn  0.75622946  0.25527220  0.52851515     1.49100
Zn628      Zn  0.72711976  0.25623892  0.49981746     1.49500
O629        O  0.75102222  0.25031185  0.50465041    -1.82800
O630        O  0.77955759  0.24891255  0.47411815    -0.73400
O631        O  0.76227162  0.21346495  0.52162905    -0.73200
O632        O  0.77430085  0.27334449  0.53092303    -0.72700
O633        O  0.77239623  0.22260772  0.48179897    -0.73400
O634        O  0.78320993  0.27801400  0.50452571    -0.73000
O635        O  0.76464469  0.23420688  0.54064621    -0.73600
O636        O  0.71548914  0.26555307  0.52095135    -0.73000
O637        O  0.73259694  0.21459746  0.49208028    -0.73700
O638        O  0.73559127  0.26416069  0.54072640    -0.73100
O639        O  0.71364813  0.23547892  0.49251332    -0.73600
O640        O  0.72568868  0.27423319  0.48112911    -0.73500
O641        O  0.75281443  0.28066451  0.47624638    -0.73300
C642        C  0.78084101  0.23285250  0.47243112     0.78500
C643        C  0.76609242  0.21864018  0.53650347     0.79000
C644        C  0.78415457  0.28082996  0.52046911     0.78000
C645        C  0.72051468  0.26779279  0.53619153     0.78300
C646        C  0.71748350  0.21998291  0.48991727     0.79500
C647        C  0.73704173  0.28303736  0.47353320     0.78500
Zn648      Zn  0.38384357  0.89707176  0.39138573     1.49700
Zn649      Zn  0.38519333  0.86918258  0.36211855     1.49400
Zn650      Zn  0.35557142  0.86789847  0.38975921     1.49100
Zn651      Zn  0.35647671  0.89746247  0.36172203     1.49500
O652        O  0.37023471  0.88283826  0.37627275    -1.82800
O653        O  0.40878770  0.89550414  0.38580941    -0.73400
O654        O  0.38174427  0.84422551  0.36656477    -0.73200
O655        O  0.35934394  0.87157341  0.41481736    -0.72700
O656        O  0.40943842  0.87446457  0.36699678    -0.73400
O657        O  0.38041007  0.89045597  0.41585316    -0.73000
O658        O  0.35953248  0.84298745  0.38406565    -0.73600
O659        O  0.33165756  0.89389392  0.36620197    -0.73000
O660        O  0.38125984  0.87372325  0.33711319    -0.73700
O661        O  0.33119047  0.87348853  0.38584296    -0.73100
O662        O  0.36003218  0.89228712  0.33716789    -0.73600
O663        O  0.36195059  0.92221963  0.36556188    -0.73500
O664        O  0.37758004  0.92160226  0.38909537    -0.73300
C665        C  0.41690459  0.88542415  0.37618112     0.78500
C666        C  0.37087909  0.83574001  0.37507737     0.79000
C667        C  0.36975685  0.88068422  0.42316013     0.78000
C668        C  0.32365246  0.88400550  0.37620808     0.78300
C669        C  0.37049047  0.88289859  0.32930194     0.79500
C670        C  0.36975981  0.92973891  0.37755382     0.78500
N671        N  0.20113637  0.87998624  0.37270158    -0.02100
C672        C  0.19194198  0.86941001  0.38283766     0.00500
C673        C  0.17481491  0.87277159  0.38073372    -0.22400
C674        C  0.17358355  0.88567104  0.36883388    -0.22600
C675        C  0.18998645  0.89001927  0.36422494     0.00400
H676        H  0.16430973  0.86642348  0.38698120     0.14200
H677        H  0.16197481  0.89141510  0.36427799     0.14200
N678        N  0.53910253  0.87494719  0.37298082    -0.02100
C679        C  0.54937850  0.88340093  0.38392546     0.00500
C680        C  0.56612928  0.87927597  0.38059950    -0.22400
C681        C  0.56598239  0.86772928  0.36736328    -0.22600
C682        C  0.54915920  0.86536005  0.36281244     0.00400
H683        H  0.57723297  0.88385092  0.38728077     0.14200
H684        H  0.57698560  0.86185971  0.36161520     0.14200
N685        N  0.37682683  0.87556941  0.54596507    -0.02100
C686        C  0.36675534  0.86509894  0.55537814     0.00500
C687        C  0.36971001  0.86796258  0.57248213    -0.22400
C688        C  0.38212966  0.88038397  0.57348177    -0.22600
C689        C  0.38621912  0.88497982  0.55697459     0.00400
H690        H  0.36374839  0.86152244  0.58310621     0.14200
H691        H  0.38743737  0.88560246  0.58503253     0.14200
N692        N  0.36874722  0.71239291  0.36960765    -0.02100
C693        C  0.36005576  0.70145278  0.37990282     0.00500
C694        C  0.36442103  0.68492451  0.37598279    -0.22400
C695        C  0.37630490  0.68572513  0.36313770    -0.22600
C696        C  0.37878870  0.70273709  0.35933874     0.00400
H697        H  0.35968574  0.67346533  0.38198142     0.14200
H698        H  0.38230886  0.67496143  0.35710594     0.14200
N699        N  0.37465047  0.87831273  0.20628146    -0.02100
C700        C  0.38347529  0.86751856  0.19611624     0.00500
C701        C  0.38047099  0.87145306  0.17925095    -0.22400
C702        C  0.36929715  0.88490260  0.17909480    -0.22600
C703        C  0.36592005  0.88903012  0.19587033     0.00400
H704        H  0.38556239  0.86504411  0.16821694     0.14200
H705        H  0.36421826  0.89101154  0.16786806     0.14200
N706        N  0.38076414  0.05202584  0.37070811    -0.02100
C707        C  0.39055863  0.06210859  0.38078896     0.00500
C708        C  0.38668692  0.07896569  0.37762242    -0.22400
C709        C  0.37435296  0.07918867  0.36518560    -0.22600
C710        C  0.37077642  0.06246744  0.36122501     0.00400
H711        H  0.39225777  0.08999259  0.38363829     0.14200
H712        H  0.36838733  0.09037726  0.35989451     0.14200
Zn713      Zn  0.25656522  0.99826060  0.22739068     1.49700
Zn714      Zn  0.26475248  0.99037403  0.26665011     1.49400
Zn715      Zn  0.25687427  0.02809237  0.25546209     1.49100
Zn716      Zn  0.22650430  0.99974904  0.25488596     1.49500
O717        O  0.25105780  0.00414538  0.25107045    -1.82800
O718        O  0.27522525  0.98045574  0.22652286    -0.73400
O719        O  0.27933106  0.00458283  0.28222754    -0.73200
O720        O  0.26602173  0.03912790  0.23416868    -0.72700
O721        O  0.28087228  0.97511093  0.25371293    -0.73400
O722        O  0.26469292  0.01909280  0.21430406    -0.73000
O723        O  0.27514627  0.03110793  0.27375062    -0.73600
O724        O  0.21486894  0.02153260  0.26247530    -0.73000
O725        O  0.24962873  0.97626284  0.28172580    -0.73700
O726        O  0.23571474  0.04074051  0.26278165    -0.73100
O727        O  0.22318174  0.98195340  0.27356656    -0.73600
O728        O  0.21462686  0.99101303  0.23337112    -0.73500
O729        O  0.23604563  0.98879774  0.21509416    -0.73300
C730        C  0.28364042  0.97262935  0.23794948     0.78500
C731        C  0.28253944  0.02037615  0.28336247     0.79000
C732        C  0.26820171  0.03421615  0.21890990     0.78000
C733        C  0.22017583  0.03665224  0.26501387     0.78300
C734        C  0.23365257  0.97412531  0.28314209     0.79500
C735        C  0.22037424  0.98695740  0.21875180     0.78500
Zn736      Zn  0.11454619  0.13600576  0.10774295     1.49700
Zn737      Zn  0.14407608  0.10795612  0.10956724     1.49400
Zn738      Zn  0.14367094  0.13867306  0.13590519     1.49100
Zn739      Zn  0.11592707  0.10964954  0.13844802     1.49500
O740        O  0.12956927  0.12311706  0.12284047    -1.82800
O741        O  0.11954056  0.13047126  0.08334037    -0.73400
O742        O  0.16883357  0.11244432  0.11391240    -0.73200
O743        O  0.13905313  0.16283737  0.12922111    -0.72700
O744        O  0.14000807  0.11110846  0.08475793    -0.73400
O745        O  0.11777419  0.16114591  0.11073259    -0.73000
O746        O  0.16836197  0.13383550  0.13229424    -0.73600
O747        O  0.12089382  0.11517112  0.16278905    -0.73000
O748        O  0.13922231  0.08339241  0.11473772    -0.73700
O749        O  0.13954620  0.13630611  0.16105949    -0.73100
O750        O  0.11977823  0.08490898  0.13514340    -0.73600
O751        O  0.09127085  0.11320598  0.13432749    -0.73500
O752        O  0.08984462  0.13081369  0.11226704    -0.73300
C753        C  0.12991452  0.12035039  0.07622170     0.78500
C754        C  0.17644567  0.12312096  0.12334954     0.79000
C755        C  0.12821636  0.16983163  0.11947663     0.78000
C756        C  0.13043980  0.12615664  0.16979942     0.78300
C757        C  0.12912830  0.07630559  0.12523753     0.79500
C758        C  0.08271424  0.12154587  0.12348940     0.78500
N759        N  0.13010139  0.12237606  0.95354152    -0.02100
C760        C  0.12347419  0.11066425  0.94286289     0.00500
C761        C  0.13055955  0.11259230  0.92690418    -0.22400
C762        C  0.14189460  0.12603725  0.92795083    -0.22600
C763        C  0.14163268  0.13173476  0.94463667     0.00400
H764        H  0.12797110  0.10495819  0.91578207     0.14200
H765        H  0.14996276  0.13058803  0.91776083     0.14200
N766        N  0.12847200  0.95345892  0.12500301    -0.02100
C767        C  0.13908224  0.94387222  0.13449698     0.00500
C768        C  0.13882166  0.92728443  0.12877286    -0.22400
C769        C  0.12759391  0.92681302  0.11523430    -0.22600
C770        C  0.12143852  0.94313633  0.11321577     0.00400
H771        H  0.14612583  0.91675930  0.13372166     0.14200
H772        H  0.12440904  0.91581963  0.10764214     0.14200
N773        N  0.95994187  0.12020180  0.12672936    -0.02100
C774        C  0.95095697  0.12899913  0.13852582     0.00500
C775        C  0.93440878  0.12290592  0.13888008    -0.22400
C776        C  0.93349433  0.10976960  0.12727064    -0.22600
C777        C  0.94938984  0.10844418  0.11996510     0.00400
H778        H  0.92422030  0.12707361  0.14710019     0.14200
H779        H  0.92248362  0.10197909  0.12458154     0.14200
N780        N  0.12509869  0.12617762  0.29279388    -0.02100
C781        C  0.11517783  0.13703746  0.30176517     0.00500
C782        C  0.11898966  0.13537677  0.31894177    -0.22400
C783        C  0.13145419  0.12311616  0.32034390    -0.22600
C784        C  0.13485133  0.11771225  0.30404367     0.00400
H785        H  0.11336604  0.14221318  0.32943012     0.14200
H786        H  0.13724558  0.11857453  0.33195894     0.14200
N787        N  0.13043358  0.29250982  0.12687034    -0.02100
C788        C  0.12076838  0.30173387  0.13782645     0.00500
C789        C  0.12430491  0.31883972  0.13546536    -0.22400
C790        C  0.13647657  0.32000339  0.12285860    -0.22600
C791        C  0.13999586  0.30362548  0.11766770     0.00400
H792        H  0.11887813  0.32942897  0.14228806     0.14200
H793        H  0.14205111  0.33160823  0.11797115     0.14200
N794        N  0.29931396  0.12148988  0.12011096    -0.02100
C795        C  0.30905027  0.11289380  0.13135814     0.00500
C796        C  0.32563720  0.11855990  0.13040326    -0.22400
C797        C  0.32601442  0.13101714  0.11799011    -0.22600
C798        C  0.30956536  0.13279787  0.11198515     0.00400
H799        H  0.33627753  0.11416522  0.13789563     0.14200
H800        H  0.33704423  0.13831601  0.11416086     0.14200
Zn801      Zn  0.89083814  0.36436944  0.36324010     1.49700
Zn802      Zn  0.86123067  0.39182958  0.36475399     1.49400
Zn803      Zn  0.86287219  0.36208371  0.39245458     1.49100
Zn804      Zn  0.89101570  0.39118617  0.39262221     1.49500
O805        O  0.87637328  0.37743420  0.37824304    -1.82800
O806        O  0.88422581  0.36744386  0.33913132    -0.73400
O807        O  0.83665975  0.38687675  0.37067389    -0.73200
O808        O  0.87022593  0.33774679  0.38959751    -0.72700
O809        O  0.86427954  0.38737112  0.33938179    -0.73400
O810        O  0.88808800  0.33969001  0.36772946    -0.73000
O811        O  0.83805474  0.36348802  0.38656136    -0.73600
O812        O  0.88559690  0.38760399  0.41729498    -0.73000
O813        O  0.86614033  0.41659159  0.36912262    -0.73700
O814        O  0.86485142  0.36835496  0.41711853    -0.73100
O815        O  0.88808399  0.41584917  0.38694937    -0.73600
O816        O  0.91568061  0.38599464  0.38925331    -0.73500
O817        O  0.91560403  0.37025679  0.36587076    -0.73300
C818        C  0.87370023  0.37689268  0.33143606     0.78500
C819        C  0.82950781  0.37468300  0.37865759     0.79000
C820        C  0.87983902  0.33094802  0.37853672     0.78000
C821        C  0.87472538  0.37840444  0.42501331     0.78300
C822        C  0.87758273  0.42403488  0.37781001     0.79500
C823        C  0.92350898  0.37829312  0.37744403     0.78500
N824        N  0.86975783  0.37344166  0.20797600    -0.02100
C825        C  0.85914482  0.38204862  0.19745606     0.00500
C826        C  0.85991481  0.37549492  0.18121964    -0.22400
C827        C  0.87147157  0.36239480  0.18170091    -0.22600
C828        C  0.87738126  0.36143988  0.19821680     0.00400
H829        H  0.85238018  0.37935040  0.17038757     0.14200
H830        H  0.87503238  0.35430942  0.17118445     0.14200
N831        N  0.87421126  0.20852230  0.37652327    -0.02100
C832        C  0.86226231  0.19882464  0.38439325     0.00500
C833        C  0.86284528  0.18246735  0.37798524    -0.22400
C834        C  0.87523086  0.18235354  0.36547864    -0.22600
C835        C  0.88201567  0.19854437  0.36489775     0.00400
H836        H  0.85463621  0.17196287  0.38143725     0.14200
H837        H  0.87878986  0.17167833  0.35761877     0.14200
N838        N  0.04627479  0.38108669  0.36598067    -0.02100
C839        C  0.05704076  0.37183109  0.35621726     0.00500
C840        C  0.07361610  0.37695965  0.35902565    -0.22400
C841        C  0.07302378  0.38960952  0.37112977    -0.22600
C842        C  0.05610026  0.39191533  0.37509195     0.00400
H843        H  0.08493100  0.37188396  0.35311704     0.14200
H844        H  0.08373568  0.39648328  0.37632498     0.14200
N845        N  0.88152795  0.37299586  0.54771572    -0.02100
C846        C  0.87176241  0.36200881  0.55687829     0.00500
C847        C  0.87590346  0.36327298  0.57395046    -0.22400
C848        C  0.88881159  0.37513041  0.57520336    -0.22600
C849        C  0.89191020  0.38093981  0.55892177     0.00400
H850        H  0.87054514  0.35595278  0.58432386     0.14200
H851        H  0.89518011  0.37909305  0.58671795     0.14200
N852        N  0.87609866  0.54717752  0.37435415    -0.02100
C853        C  0.86667012  0.55705750  0.36384366     0.00500
C854        C  0.87166664  0.57382876  0.36523387    -0.22400
C855        C  0.88479382  0.57420941  0.37687224    -0.22600
C856        C  0.88718295  0.55769052  0.38235522     0.00400
H857        H  0.86680842  0.58449845  0.35805502     0.14200
H858        H  0.89188749  0.58530866  0.38081272     0.14200
N859        N  0.70616376  0.37974341  0.38372922    -0.02100
C860        C  0.69560161  0.39074091  0.37566393     0.00500
C861        C  0.67896999  0.38775526  0.38029262    -0.22400
C862        C  0.67921024  0.37428514  0.39147764    -0.22600
C863        C  0.69603794  0.36962721  0.39356713     0.00400
H864        H  0.66784861  0.39442869  0.37578502     0.14200
H865        H  0.66824498  0.36867825  0.39764471     0.14200
Zn866      Zn  0.01364967  0.23724886  0.23542884     1.49700
Zn867      Zn  0.97477662  0.24704365  0.24327415     1.49400
Zn868      Zn  0.00174828  0.24641207  0.27374461     1.49100
Zn869      Zn  0.00401101  0.27561666  0.24510905     1.49500
O870        O  0.99857889  0.25155513  0.24938625    -1.82800
O871        O  0.99995973  0.22191877  0.21968621    -0.73400
O872        O  0.96125136  0.23835635  0.26358734    -0.73200
O873        O  0.01930908  0.22773572  0.27679369    -0.72700
O874        O  0.97318826  0.22918183  0.22491843    -0.73400
O875        O  0.02780422  0.22192406  0.25045014    -0.73000
O876        O  0.97972405  0.23879444  0.28490493    -0.73600
O877        O  0.01318496  0.28674542  0.26639309    -0.73000
O878        O  0.96321575  0.26852464  0.23503428    -0.73700
O879        O  0.00992189  0.26717103  0.28658787    -0.73100
O880        O  0.98290162  0.28864196  0.23784755    -0.73600
O881        O  0.02217912  0.27822219  0.22690383    -0.73500
O882        O  0.02982616  0.25169552  0.22112292    -0.73300
C883        C  0.98406573  0.22020080  0.21702355     0.78500
C884        C  0.96481757  0.23604976  0.27922430     0.79000
C885        C  0.02858887  0.21942260  0.26645144     0.78000
C886        C  0.01429074  0.28204064  0.28186348     0.78300
C887        C  0.96782024  0.28403948  0.23410256     0.79500
C888        C  0.03152410  0.26768045  0.21896179     0.78500
C889        C  0.04819572  0.33913855  0.32104605     0.17300
C890        C  0.04718747  0.33016580  0.30570773    -0.31700
C891        C  0.03580212  0.31646258  0.30488382     0.21700
C892        C  0.02613757  0.31160513  0.31883971     0.03900
C893        C  0.02710279  0.32062685  0.33418566    -0.21400
C894        C  0.03823977  0.33457515  0.33489207     0.13100
S895        S  0.06085510  0.35644955  0.32439962    -0.05100
C896        C  0.05221645  0.35799123  0.34446140    -0.08600
C897        C  0.04057181  0.34530681  0.34843059    -0.25200
S898        S  0.01325177  0.29446452  0.31524777    -0.02400
C899        C  0.02063278  0.29416476  0.29460633    -0.15800
C900        C  0.03256930  0.30661108  0.29089669    -0.13800
H901        H  0.05476318  0.33386926  0.29480145     0.21500
H902        H  0.01935876  0.31706813  0.34502028     0.17600
H903        H  0.03401074  0.34414849  0.36049116     0.20100
H904        H  0.03857011  0.30833644  0.27860939     0.13500
C905        C  0.92007564  0.21615974  0.33940124     0.17300
C906        C  0.93536426  0.22361105  0.33393215    -0.31700
C907        C  0.93842710  0.22451256  0.31635248     0.21700
C908        C  0.92666284  0.21852180  0.30470500     0.03900
C909        C  0.91142625  0.21093928  0.31017727    -0.21400
C910        C  0.90849188  0.20977331  0.32777423     0.13100
S911        S  0.91390730  0.21405989  0.36016340    -0.05100
C912        C  0.89564350  0.20421543  0.35314799    -0.08600
C913        C  0.89452312  0.20271555  0.33561267    -0.25200
S914        S  0.93263402  0.22114143  0.28393121    -0.02400
C915        C  0.95137111  0.23006729  0.29098609    -0.15800
C916        C  0.95266621  0.23104039  0.30856961    -0.13800
H917        H  0.94449782  0.22846505  0.34299413     0.21500
H918        H  0.90228085  0.20611169  0.30111380     0.17600
H919        H  0.88386324  0.19711466  0.32896704     0.20100
H920        H  0.96343248  0.23632138  0.31530819     0.13500
C921        C  0.90664477  0.32395979  0.20904291     0.17300
C922        C  0.91433317  0.30800318  0.21078042    -0.31700
C923        C  0.93042432  0.30734263  0.21839151     0.21700
C924        C  0.93860707  0.32194255  0.22387709     0.03900
C925        C  0.93080474  0.33790280  0.22235409    -0.21400
C926        C  0.91460455  0.33854604  0.21490720     0.13100
S927        S  0.88744758  0.32744610  0.19960784    -0.05100
C928        C  0.88993154  0.34873523  0.20393966    -0.08600
C929        C  0.90496674  0.35283219  0.21215670    -0.25200
S930        S  0.95826436  0.31841200  0.23241470    -0.02400
C931        C  0.95528937  0.29699184  0.22887164    -0.15800
C932        C  0.93986196  0.29299940  0.22132685    -0.13800
H933        H  0.90807056  0.29659575  0.20631767     0.21500
H934        H  0.93710464  0.34931910  0.22673565     0.17600
H935        H  0.90878171  0.36560204  0.21555235     0.20100
H936        H  0.93575336  0.28025631  0.21816493     0.13500
C937        C  0.88725716  0.47160756  0.37756744     0.17300
C938        C  0.89478341  0.48773418  0.37790616    -0.31700
C939        C  0.88399177  0.50182312  0.37711524     0.21700
C940        C  0.86649113  0.49994952  0.37626189     0.03900
C941        C  0.85899094  0.48383826  0.37557862    -0.21400
C942        C  0.86978751  0.46975479  0.37611913     0.13100
S943        S  0.89806587  0.45293552  0.37901787    -0.05100
C944        C  0.87887129  0.44257190  0.37726663    -0.08600
C945        C  0.86491084  0.45307411  0.37565023    -0.25200
S946        S  0.85557018  0.51856372  0.37571947    -0.02400
C947        C  0.87483274  0.52902203  0.37598897    -0.15800
C948        C  0.88888440  0.51850429  0.37685625    -0.13800
H949        H  0.90842883  0.48923302  0.37878734     0.21500
H950        H  0.84534681  0.48234811  0.37466619     0.17600
H951        H  0.85188900  0.44872963  0.37463411     0.20100
H952        H  0.90196004  0.52276998  0.37676822     0.13500
C953        C  0.86653633  0.37885161  0.47290588     0.17300
C954        C  0.85972248  0.37823487  0.48936974    -0.31700
C955        C  0.87118419  0.37808096  0.50299504     0.21700
C956        C  0.88860478  0.37836099  0.50031638     0.03900
C957        C  0.89537395  0.37965638  0.48394120    -0.21400
C958        C  0.88395033  0.37993736  0.47036139     0.13100
S959        S  0.85497293  0.37767278  0.45459795    -0.05100
C960        C  0.87381306  0.37916534  0.44355068    -0.08600
C961        C  0.88817530  0.38045652  0.45353229    -0.25200
S962        S  0.90045453  0.37626612  0.51823654    -0.02400
C963        C  0.88175165  0.37539821  0.52959494    -0.15800
C964        C  0.86715263  0.37685307  0.51989181    -0.13800
H965        H  0.84614568  0.37743875  0.49145036     0.21500
H966        H  0.90897008  0.37995145  0.48184866     0.17600
H967        H  0.90105660  0.38108823  0.44870761     0.20100
H968        H  0.85434011  0.37646672  0.52489714     0.13500
C969        C  0.88035575  0.28389821  0.36826118     0.17300
C970        C  0.87910822  0.26816775  0.36025596    -0.31700
C971        C  0.87902279  0.25373950  0.37059290     0.21700
C972        C  0.88064443  0.25477753  0.38812982     0.03900
C973        C  0.88173737  0.27059608  0.39619583    -0.21400
C974        C  0.88127596  0.28512282  0.38584370     0.13100
S975        S  0.88020060  0.30279274  0.35781022    -0.05100
C976        C  0.88077270  0.31251523  0.37731691    -0.08600
C977        C  0.88128176  0.30166852  0.39118074    -0.25200
S978        S  0.88030729  0.23558537  0.39830064    -0.02400
C979        C  0.87707249  0.22635809  0.37871271    -0.15800
C980        C  0.87689583  0.23748734  0.36513292    -0.13800
H981        H  0.87791782  0.26722884  0.34657315     0.21500
H982        H  0.88255269  0.27154460  0.40990154     0.17600
H983        H  0.88159867  0.30567349  0.40433782     0.20100
H984        H  0.87484816  0.23388117  0.35201898     0.13500
C985        C  0.87304875  0.36568632  0.28423644     0.17300
C986        C  0.87392187  0.35757087  0.26844560    -0.31700
C987        C  0.87241288  0.36768956  0.25386902     0.21700
C988        C  0.87033460  0.38512698  0.25495882     0.03900
C989        C  0.86907569  0.39320943  0.27076394    -0.21400
C990        C  0.87036476  0.38305934  0.28536539     0.13100
S991        S  0.87545512  0.35574120  0.30331246    -0.05100
C992        C  0.87241663  0.37510855  0.31294943    -0.08600
C993        C  0.86968992  0.38852997  0.30189842    -0.25200
S994        S  0.86922596  0.39517052  0.23580079    -0.02400
C995        C  0.87101216  0.37559175  0.22614707    -0.15800
C996        C  0.87264730  0.36210696  0.23740118    -0.13800
H997        H  0.87581739  0.34398601  0.26756116     0.21500
H998        H  0.86724835  0.40680329  0.27163514     0.17600
H999        H  0.86791833  0.40160483  0.30573168     0.20100
H1000       H  0.87344419  0.34887749  0.23383353     0.13500
C1001       C  0.78157048  0.36581919  0.38014201     0.17300
C1002       C  0.76519288  0.35872028  0.38066175    -0.31700
C1003       C  0.75136139  0.36994140  0.38092249     0.21700
C1004       C  0.75379970  0.38739233  0.38105700     0.03900
C1005       C  0.77008589  0.39445342  0.38006116    -0.21400
C1006       C  0.78385079  0.38328193  0.37945228     0.13100
S1007       S  0.80009367  0.35455276  0.38039960    -0.05100
C1008       C  0.81088890  0.37358825  0.37895237    -0.08600
C1009       C  0.80061563  0.38780003  0.37850120    -0.25200
S1010       S  0.73564601  0.39892132  0.38264241    -0.02400
C1011       C  0.72444290  0.38007961  0.38263308    -0.15800
C1012       C  0.73444856  0.36564309  0.38137562    -0.13800
H1013       H  0.76332316  0.34509545  0.38098254     0.21500
H1014       H  0.77195425  0.40808323  0.37991265     0.17600
H1015       H  0.80519982  0.40076982  0.37789960     0.20100
H1016       H  0.72963251  0.35275984  0.38104732     0.13500
C1017       C  0.97167962  0.38080769  0.38303465     0.17300
C1018       C  0.98830473  0.38209383  0.38915627    -0.31700
C1019       C  0.00153217  0.38086675  0.37730801     0.21700
C1020       C  0.99839657  0.37879110  0.36009351     0.03900
C1021       C  0.98177708  0.37717492  0.35400767    -0.21400
C1022       C  0.96854576  0.37808712  0.36590034     0.13100
S1023       S  0.95387300  0.38234287  0.39528913    -0.05100
C1024       C  0.94211287  0.37878987  0.37720068    -0.08600
C1025       C  0.95156949  0.37670175  0.36250384    -0.25200
S1026       S  0.01619242  0.37837344  0.34772642    -0.02400
C1027       C  0.02800992  0.38034209  0.36606591    -0.15800
C1028       C  0.01849324  0.38155570  0.38083639    -0.13800
H1029       H  0.99082253  0.38399564  0.40255181     0.21500
H1030       H  0.97926856  0.37531318  0.34060667     0.17600
H1031       H  0.94628583  0.37456907  0.34998116     0.20100
H1032       H  0.02365242  0.38264488  0.39351741     0.13500
C1033       C  0.09053068  0.27895354  0.16989154     0.17300
C1034       C  0.08132715  0.26727442  0.17982081    -0.31700
C1035       C  0.06757517  0.27343215  0.18935993     0.21700
C1036       C  0.06333655  0.29050697  0.18921756     0.03900
C1037       C  0.07255106  0.30217652  0.17926108    -0.21400
C1038       C  0.08615219  0.29595495  0.16952140     0.13100
S1039       S  0.10736741  0.27398461  0.15717365    -0.05100
C1040       C  0.10835472  0.29496811  0.15067077    -0.08600
C1041       C  0.09630072  0.30517226  0.15862535    -0.25200
S1042       S  0.04630014  0.29543612  0.20177671    -0.02400
C1043       C  0.04467868  0.27421488  0.20712785    -0.15800
C1044       C  0.05689483  0.26401816  0.19954774    -0.13800
H1045       H  0.08464015  0.25393858  0.17997207     0.21500
H1046       H  0.06916117  0.31549117  0.17898817     0.17600
H1047       H  0.09473356  0.31863166  0.15633648     0.20100
H1048       H  0.05795493  0.25043622  0.20144057     0.13500
C1049       C  0.05822867  0.18819978  0.28966748     0.17300
C1050       C  0.06757679  0.17877169  0.30156625    -0.31700
C1051       C  0.08009762  0.16773115  0.29535290     0.21700
C1052       C  0.08302242  0.16600666  0.27809190     0.03900
C1053       C  0.07360507  0.17531188  0.26617699    -0.21400
C1054       C  0.06123156  0.18649694  0.27238247     0.13100
S1055       S  0.04290305  0.20271677  0.29461064    -0.05100
C1056       C  0.04057979  0.20665110  0.27315562    -0.08600
C1057       C  0.05113441  0.19701305  0.26284795    -0.25200
S1058       S  0.09891817  0.15221737  0.27319432    -0.02400
C1059       C  0.10194560  0.14866345  0.29467733    -0.15800
C1060       C  0.09083498  0.15785341  0.30489372    -0.13800
H1061       H  0.06535660  0.18016361  0.31508115     0.21500
H1062       H  0.07598264  0.17406314  0.25267247     0.17600
H1063       H  0.05153812  0.19778991  0.24910226     0.20100
H1064       H  0.09057463  0.15744742  0.31864050     0.13500
C1065       C  0.96188987  0.18833031  0.18726346     0.17300
C1066       C  0.95023327  0.17856956  0.17794235    -0.31700
C1067       C  0.95661041  0.16508300  0.16821066     0.21700
C1068       C  0.97380144  0.16146115  0.16783813     0.03900
C1069       C  0.98547155  0.17120589  0.17715197    -0.21400
C1070       C  0.97911369  0.18473550  0.18682872     0.13100
S1071       S  0.95667452  0.20507830  0.19998278    -0.05100
C1072       C  0.97793099  0.20733584  0.20480165    -0.08600
C1073       C  0.98840126  0.19562985  0.19681811    -0.25200
S1074       S  0.97894992  0.14461880  0.15528358    -0.02400
C1075       C  0.95772304  0.14243768  0.15010533    -0.15800
C1076       C  0.94734111  0.15420826  0.15817946    -0.13800
H1077       H  0.93678032  0.18136778  0.17826507     0.21500
H1078       H  0.99891805  0.16836927  0.17685613     0.17600
H1079       H  0.00204040  0.19496056  0.19842986     0.20100
H1080       H  0.93370290  0.15494415  0.15664784     0.13500
C1081       C  0.13920520  0.24541260  0.12698765     0.17300
C1082       C  0.14596362  0.22915140  0.12907721    -0.31700
C1083       C  0.13616946  0.21540545  0.12350308     0.21700
C1084       C  0.12043301  0.21768345  0.11593985     0.03900
C1085       C  0.11367086  0.23397953  0.11377728    -0.21400
C1086       C  0.12338560  0.24773917  0.11955731     0.13100
S1087       S  0.14901521  0.26365123  0.13331625    -0.05100
C1088       C  0.13152007  0.27442812  0.12605287    -0.08600
C1089       C  0.11889403  0.26449441  0.11893760    -0.25200
S1090       S  0.11047702  0.19925083  0.11032389    -0.02400
C1091       C  0.12759875  0.18842615  0.11855771    -0.15800
C1092       C  0.14033808  0.19865540  0.12504872    -0.13800
H1093       H  0.15822253  0.22727583  0.13500447     0.21500
H1094       H  0.10131603  0.23583659  0.10804978     0.17600
H1095       H  0.10714793  0.26932272  0.11370205     0.20100
H1096       H  0.15193656  0.19406614  0.13082366     0.13500
C1097       C  0.13543530  0.00020752  0.11718305     0.17300
C1098       C  0.14094220  0.01619052  0.11159840    -0.31700
C1099       C  0.13365902  0.03044810  0.11927451     0.21700
C1100       C  0.12137518  0.02886287  0.13185352     0.03900
C1101       C  0.11583523  0.01290135  0.13739978    -0.21400
C1102       C  0.12318817  0.99865703  0.12983145     0.13100
S1103       S  0.14284851  0.98137683  0.10963623    -0.05100
C1104       C  0.12932238  0.97150119  0.12371656    -0.08600
C1105       C  0.11964132  0.98209509  0.13369097    -0.25200
S1106       S  0.11418586  0.04762670  0.13969327    -0.02400
C1107       C  0.12796362  0.05775099  0.12597536    -0.15800
C1108       C  0.13749028  0.04705331  0.11580237    -0.13800
H1109       H  0.15054343  0.01745309  0.10179995     0.21500
H1110       H  0.10630194  0.01164289  0.14726374     0.17600
H1111       H  0.11057960  0.97787198  0.14317524     0.20100
H1112       H  0.14673502  0.05119009  0.10644784     0.13500
C1113       C  0.00633105  0.12786207  0.11699834     0.17300
C1114       C  0.02217853  0.13409223  0.11171359    -0.31700
C1115       C  0.03668690  0.12614375  0.11827777     0.21700
C1116       C  0.03544125  0.11266075  0.12961319     0.03900
C1117       C  0.01966132  0.10629784  0.13469825    -0.21400
C1118       C  0.00521193  0.11416296  0.12810928     0.13100
S1119       S  0.98717386  0.13620810  0.11122613    -0.05100
C1120       C  0.97782649  0.12097801  0.12387476    -0.08600
C1121       C  0.98882255  0.11001214  0.13193507    -0.25200
S1122       S  0.05436124  0.10507729  0.13664362    -0.02400
C1123       C  0.06416638  0.12010765  0.12407554    -0.15800
C1124       C  0.05323608  0.13042592  0.11492811    -0.13800
H1125       H  0.02315673  0.14477184  0.10306488     0.21500
H1126       H  0.01868732  0.09579293  0.14356395     0.17600
H1127       H  0.98497215  0.09996201  0.14054796     0.20100
H1128       H  0.05717118  0.14059613  0.10649178     0.13500
C1129       C  0.12233103  0.11680570  0.24582302     0.17300
C1130       C  0.11790107  0.11107275  0.22959786    -0.31700
C1131       C  0.12512874  0.11947614  0.21562037     0.21700
C1132       C  0.13642910  0.13286020  0.21765272     0.03900
C1133       C  0.14103473  0.13847067  0.23388155    -0.21400
C1134       C  0.13367003  0.13018922  0.24786120     0.13100
S1135       S  0.11415931  0.10893180  0.26436116    -0.05100
C1136       C  0.12592460  0.12404829  0.27478710    -0.08600
C1137       C  0.13595058  0.13428112  0.26458110    -0.25200
S1138       S  0.14353637  0.14154794  0.19905273    -0.02400
C1139       C  0.13110523  0.12700496  0.18843811    -0.15800
C1140       C  0.12203360  0.11604764  0.19887892    -0.13800
H1141       H  0.10897003  0.10073023  0.22793309     0.21500
H1142       H  0.14973625  0.14900803  0.23553627     0.17600
H1143       H  0.14397860  0.14446228  0.26917004     0.20100
H1144       H  0.11359956  0.10611346  0.19445766     0.13500
C1145       C  0.13451752  0.11202116  0.02867586     0.17300
C1146       C  0.13879810  0.10587908  0.01259469    -0.31700
C1147       C  0.13207848  0.11438151  0.99851758     0.21700
C1148       C  0.12150608  0.12836326  0.00028753     0.03900
C1149       C  0.11702754  0.13434561  0.01640049    -0.21400
C1150       C  0.12381611  0.12587071  0.03049765     0.13100
S1151       S  0.14183737  0.10381383  0.04730625    -0.05100
C1152       C  0.13023297  0.11913094  0.05766783    -0.08600
C1153       C  0.12124690  0.12997880  0.04715704    -0.25200
S1154       S  0.11549929  0.13753821  0.98156382    -0.02400
C1155       C  0.12754088  0.12243155  0.97148246    -0.15800
C1156       C  0.13540510  0.11077196  0.98191778    -0.13800
H1157       H  0.14722748  0.09513926  0.01111144     0.21500
H1158       H  0.10887345  0.14529386  0.01788363     0.17600
H1159       H  0.11336650  0.14036881  0.05146716     0.20100
H1160       H  0.14361525  0.10067560  0.97753864     0.13500
C1161       C  0.22419891  0.12628886  0.13116678     0.17300
C1162       C  0.24040398  0.12956627  0.13759931    -0.31700
C1163       C  0.25429245  0.12421130  0.12792216     0.21700
C1164       C  0.25223223  0.11601672  0.11244369     0.03900
C1165       C  0.23597536  0.11244853  0.10615754    -0.21400
C1166       C  0.22204552  0.11774777  0.11590869     0.13100
S1167       S  0.20579755  0.13235900  0.14074891    -0.05100
C1168       C  0.19503166  0.12306493  0.12416762    -0.08600
C1169       C  0.20525765  0.11568735  0.11189957    -0.25200
S1170       S  0.27081989  0.11127762  0.10227483    -0.02400
C1171       C  0.28124025  0.12034731  0.11917755    -0.15800
C1172       C  0.27097198  0.12653273  0.13195976    -0.13800
H1173       H  0.24211786  0.13617879  0.14953209     0.21500
H1174       H  0.23425901  0.10601153  0.09413149     0.17600
H1175       H  0.20066107  0.10941789  0.10055666     0.20100
H1176       H  0.27554327  0.13267668  0.14337675     0.13500
C1177       C  0.16217125  0.96263204  0.17345289     0.17300
C1178       C  0.16674846  0.97023831  0.18896967    -0.31700
C1179       C  0.18416364  0.97226709  0.19246719     0.21700
C1180       C  0.19640967  0.96701187  0.18095356     0.03900
C1181       C  0.19184746  0.95916612  0.16561538    -0.21400
C1182       C  0.17449057  0.95704578  0.16217187     0.13100
S1183       S  0.14179789  0.95956061  0.16647569    -0.05100
C1184       C  0.14999709  0.95042246  0.14834278    -0.08600
C1185       C  0.16757873  0.94983376  0.14784809    -0.25200
S1186       S  0.21678568  0.97110442  0.18712919    -0.02400
C1187       C  0.20890493  0.97982956  0.20561539    -0.15800
C1188       C  0.19126291  0.97952819  0.20674322    -0.13800
H1189       H  0.15715838  0.97453141  0.19784345     0.21500
H1190       H  0.20143653  0.95501035  0.15667250     0.17600
H1191       H  0.17489880  0.94469547  0.13739997     0.20100
H1192       H  0.18402805  0.98451761  0.21732201     0.13500
C1193       C  0.16069658  0.07887334  0.29045616     0.17300
C1194       C  0.16635030  0.06277261  0.28537781    -0.31700
C1195       C  0.18333564  0.06125492  0.28013658     0.21700
C1196       C  0.19419138  0.07515400  0.27997654     0.03900
C1197       C  0.18853555  0.09124598  0.28500725    -0.21400
C1198       C  0.17157903  0.09276468  0.29024433     0.13100
S1199       S  0.14050626  0.08344394  0.29697405    -0.05100
C1200       C  0.14686146  0.10420852  0.29944738    -0.08600
C1201       C  0.16367297  0.10738234  0.29538777    -0.25200
S1202       S  0.21434429  0.07070318  0.27336914    -0.02400
C1203       C  0.20817407  0.04984503  0.27076958    -0.15800
C1204       C  0.19127308  0.04668429  0.27480857    -0.13800
H1205       H  0.15787589  0.05191633  0.28547959     0.21500
H1206       H  0.19699097  0.10211684  0.28483972     0.17600
H1207       H  0.16966304  0.11976878  0.29588182     0.20100
H1208       H  0.18516352  0.03437132  0.27403395     0.13500
C1209       C  0.28896804  0.07652977  0.15746732     0.17300
C1210       C  0.27965460  0.06248300  0.16341429    -0.31700
C1211       C  0.28041582  0.05875701  0.18086656     0.21700
C1212       C  0.28990624  0.06868236  0.19189793     0.03900
C1213       C  0.29948562  0.08248945  0.18589641    -0.21400
C1214       C  0.29882829  0.08613469  0.16845118     0.13100
S1215       S  0.28914580  0.08363765  0.13692980    -0.05100
C1216       C  0.30275155  0.09964262  0.14318971    -0.08600
C1217       C  0.30697592  0.09925407  0.16027868    -0.25200
S1218       S  0.28851972  0.06267483  0.21271112    -0.02400
C1219       C  0.27531189  0.04635931  0.20650894    -0.15800
C1220       C  0.27216177  0.04574966  0.18916596    -0.13800
H1221       H  0.27200109  0.05491929  0.15485321     0.21500
H1222       H  0.30696070  0.09019016  0.19449274     0.17600
H1223       H  0.31517195  0.10839969  0.16647462     0.20100
H1224       H  0.26405353  0.03648538  0.18302932     0.13500
C1225       C  0.33766097  0.05490656  0.32557951     0.17300
C1226       C  0.32713731  0.05593103  0.31117510    -0.31700
C1227       C  0.31555145  0.04260088  0.30836308     0.21700
C1228       C  0.31467151  0.02879982  0.31931924     0.03900
C1229       C  0.32501247  0.02790620  0.33381742    -0.21400
C1230       C  0.33644973  0.04129592  0.33670734     0.13100
S1231       S  0.35263854  0.06961810  0.33122443    -0.05100
C1232       C  0.35748052  0.05727028  0.34874481    -0.08600
C1233       C  0.34748687  0.04273525  0.35015043    -0.25200
S1234       S  0.30035060  0.01360349  0.31340332    -0.02400
C1235       C  0.29514137  0.02605216  0.29611413    -0.15800
C1236       C  0.30422803  0.04118908  0.29508893    -0.13800
H1237       H  0.32797416  0.06662061  0.30252729     0.21500
H1238       H  0.32424166  0.01718045  0.34243040     0.17600
H1239       H  0.34803921  0.03370513  0.36051553     0.20100
H1240       H  0.30287676  0.05046998  0.28500263     0.13500
C1241       C  0.33089016  0.92275641  0.20275829     0.17300
C1242       C  0.31660311  0.93326679  0.20131745    -0.31700
C1243       C  0.31195348  0.94291167  0.21555289     0.21700
C1244       C  0.32109677  0.94209458  0.23058438     0.03900
C1245       C  0.33570512  0.93196280  0.23183972    -0.21400
C1246       C  0.34037797  0.92234753  0.21755412     0.13100
S1247       S  0.33795219  0.90931391  0.18733285    -0.05100
C1248       C  0.35388507  0.90278982  0.20092743    -0.08600
C1249       C  0.35390137  0.91140810  0.21637616    -0.25200
S1250       S  0.31280607  0.95407947  0.24667253    -0.02400
C1251       C  0.29706000  0.96056523  0.23288488    -0.15800
C1252       C  0.29827974  0.95363687  0.21672645    -0.13800
H1253       H  0.30925161  0.93367832  0.18970023     0.21500
H1254       H  0.34292476  0.93135199  0.24353305     0.17600
H1255       H  0.36325083  0.90999176  0.22630392     0.20100
H1256       H  0.28949087  0.95613599  0.20644778     0.13500
C1257       C  0.19673134  0.92324607  0.32853216     0.17300
C1258       C  0.19599724  0.93316924  0.31366899    -0.31700
C1259       C  0.20980125  0.94399443  0.31015139     0.21700
C1260       C  0.22366717  0.94486228  0.32097666     0.03900
C1261       C  0.22418759  0.93529274  0.33600099    -0.21400
C1262       C  0.21044314  0.92447977  0.33947462     0.13100
S1263       S  0.18187153  0.90855430  0.33466585    -0.05100
C1264       C  0.19443242  0.90380057  0.35200228    -0.08600
C1265       C  0.20899761  0.91372675  0.35311831    -0.25200
S1266       S  0.23958840  0.95789248  0.31409373    -0.02400
C1267       C  0.22741024  0.96251674  0.29651074    -0.15800
C1268       C  0.21177931  0.95431220  0.29613690    -0.13800
H1269       H  0.18531325  0.93224087  0.30506660     0.21500
H1270       H  0.23503047  0.93595302  0.34443485     0.17600
H1271       H  0.21824200  0.91308863  0.36325198     0.20100
H1272       H  0.20257416  0.95552193  0.28599306     0.13500
C1273       C  0.46483835  0.89226175  0.37332148     0.17300
C1274       C  0.48144854  0.89840910  0.37132658    -0.31700
C1275       C  0.49468968  0.88654944  0.37214510     0.21700
C1276       C  0.49155111  0.86942699  0.37509492     0.03900
C1277       C  0.47500012  0.86327274  0.37666490    -0.21400
C1278       C  0.46180515  0.87503477  0.37559372     0.13100
S1279       S  0.44689952  0.90445094  0.37324024    -0.05100
C1280       C  0.43540522  0.88599239  0.37580888    -0.08600
C1281       C  0.44493786  0.87135595  0.37677114    -0.25200
S1282       S  0.50921211  0.85715336  0.37684943    -0.02400
C1283       C  0.52094671  0.87517891  0.37296819    -0.15800
C1284       C  0.51167464  0.88991785  0.37067440    -0.13800
H1285       H  0.48394499  0.91180057  0.36935782     0.21500
H1286       H  0.47251260  0.84989868  0.37877458     0.17600
H1287       H  0.43975795  0.85869523  0.37840655     0.20100
H1288       H  0.51712990  0.90236752  0.36846618     0.13500
C1289       C  0.36240911  0.88096013  0.47115498     0.17300
C1290       C  0.35580598  0.88193013  0.48766384    -0.31700
C1291       C  0.36716029  0.87978212  0.50119170     0.21700
C1292       C  0.38427150  0.87656093  0.49843701     0.03900
C1293       C  0.39094354  0.87610527  0.48195785    -0.21400
C1294       C  0.37964431  0.87847536  0.46843884     0.13100
S1295       S  0.35067326  0.88244658  0.45299054    -0.05100
C1296       C  0.36927625  0.88015991  0.44172648    -0.08600
C1297       C  0.38370570  0.87832038  0.45153228    -0.25200
S1298       S  0.39576120  0.87305417  0.51645879    -0.02400
C1299       C  0.37739132  0.87651605  0.52779043    -0.15800
C1300       C  0.36317943  0.88007075  0.51810527    -0.13800
H1301       H  0.34239969  0.88404883  0.48986443     0.21500
H1302       H  0.40431504  0.87378608  0.47975932     0.17600
H1303       H  0.39641413  0.87666084  0.44652976     0.20100
H1304       H  0.35061661  0.88235926  0.52321198     0.13500
C1305       C  0.24826872  0.88109219  0.36345893     0.17300
C1306       C  0.26451021  0.88076773  0.35622714    -0.31700
C1307       C  0.27834943  0.88323309  0.36711609     0.21700
C1308       C  0.27614106  0.88571818  0.38444969     0.03900
C1309       C  0.25990935  0.88648670  0.39159452    -0.21400
C1310       C  0.24608737  0.88418443  0.38069888     0.13100
S1311       S  0.22986595  0.87761939  0.35258709    -0.05100
C1312       C  0.21924502  0.88073760  0.37146137    -0.08600
C1313       C  0.22938811  0.88424363  0.38532989    -0.25200
S1314       S  0.29451998  0.88714012  0.39573736    -0.02400
C1315       C  0.30521428  0.88478423  0.37685244    -0.15800
C1316       C  0.29511854  0.88298075  0.36261612    -0.13800
H1317       H  0.26629172  0.87845606  0.34277718     0.21500
H1318       H  0.25813676  0.88851429  0.40509319     0.17600
H1319       H  0.22473696  0.88644790  0.39809505     0.20100
H1320       H  0.29981463  0.88102364  0.34982112     0.13500
C1321       C  0.37995810  0.78798568  0.37367771     0.17300
C1322       C  0.38739835  0.77184616  0.37361616    -0.31700
C1323       C  0.37659288  0.75776980  0.37208399     0.21700
C1324       C  0.35917236  0.75966279  0.37026170     0.03900
C1325       C  0.35168226  0.77579709  0.37078809    -0.21400
C1326       C  0.36247169  0.78988030  0.37271528     0.13100
S1327       S  0.39095922  0.80663939  0.37479883    -0.05100
C1328       C  0.37179435  0.81710940  0.37459910    -0.08600
C1329       C  0.35767262  0.80661175  0.37354710    -0.25200
S1330       S  0.34837075  0.74102200  0.36756548    -0.02400
C1331       C  0.36748366  0.73059049  0.36966327    -0.15800
C1332       C  0.38141008  0.74107418  0.37205886    -0.13800
H1333       H  0.40102206  0.77033099  0.37465253     0.21500
H1334       H  0.33806545  0.77730890  0.36967940     0.17600
H1335       H  0.34466810  0.81101504  0.37299682     0.20100
H1336       H  0.39432726  0.73666596  0.37362876     0.13500
C1337       C  0.37209587  0.97755708  0.38506428     0.17300
C1338       C  0.37277933  0.99395528  0.39185129    -0.31700
C1339       C  0.37607513  0.00737659  0.38059718     0.21700
C1340       C  0.37890814  0.00459663  0.36340170     0.03900
C1341       C  0.37785623  0.98824351  0.35656214    -0.21400
C1342       C  0.37422366  0.97485833  0.36776277     0.13100
S1343       S  0.36906729  0.95949097  0.39669633    -0.05100
C1344       C  0.37018168  0.94829423  0.37797243    -0.08600
C1345       C  0.37282704  0.95806889  0.36356984    -0.25200
S1346       S  0.38323858  0.02249544  0.35192689    -0.02400
C1347       C  0.38045943  0.03384897  0.37039967    -0.15800
C1348       C  0.37679579  0.02422135  0.38467600    -0.13800
H1349       H  0.37088677  0.99614985  0.40530681     0.21500
H1350       H  0.37980941  0.98604559  0.34311600     0.17600
H1351       H  0.37430833  0.95307524  0.35083657     0.20100
H1352       H  0.37455890  0.02934439  0.39724049     0.13500
C1353       C  0.36197713  0.88121850  0.28160172     0.17300
C1354       C  0.35476678  0.87984967  0.26540667    -0.31700
C1355       C  0.36585413  0.87931655  0.25148910     0.21700
C1356       C  0.38331146  0.88070010  0.25354799     0.03900
C1357       C  0.39053787  0.88159071  0.26976647    -0.21400
C1358       C  0.37947135  0.88158324  0.28371809     0.13100
S1359       S  0.35070092  0.88231850  0.30006901    -0.05100
C1360       C  0.36975386  0.88247102  0.31074306    -0.08600
C1361       C  0.38403377  0.88202306  0.30049562    -0.25200
S1362       S  0.39453126  0.88126513  0.23501850    -0.02400
C1363       C  0.37553190  0.87886383  0.22446552    -0.15800
C1364       C  0.36132220  0.87778262  0.23478277    -0.13800
H1365       H  0.34113152  0.87922769  0.26373076     0.21500
H1366       H  0.40417030  0.88229509  0.27143272     0.17600
H1367       H  0.39699676  0.88221710  0.30507808     0.20100
H1368       H  0.34841725  0.87644180  0.23023417     0.13500
C1369       C  0.82807224  0.22008676  0.41249486     0.17300
C1370       C  0.81683587  0.23135299  0.42046156    -0.31700
C1371       C  0.80880283  0.22589802  0.43546014     0.21700
C1372       C  0.81148486  0.20976551  0.44201390     0.03900
C1373       C  0.82275071  0.19848446  0.43403211    -0.21400
C1374       C  0.83111250  0.20410570  0.41923751     0.13100
S1375       S  0.83940091  0.22453765  0.39450511    -0.05100
C1376       C  0.84910893  0.20499744  0.39647961    -0.08600
C1377       C  0.84306291  0.19533025  0.41001539    -0.25200
S1378       S  0.80039142  0.20558465  0.46028913    -0.02400
C1379       C  0.79240091  0.22594617  0.45934014    -0.15800
C1380       C  0.79797418  0.23526969  0.44539298    -0.13800
H1381       H  0.81466822  0.24394068  0.41534127     0.21500
H1382       H  0.82509847  0.18598158  0.43927497     0.17600
H1383       H  0.84747468  0.18269581  0.41316379     0.20100
H1384       H  0.79429481  0.24823559  0.44266510     0.13500
C1385       C  0.84367129  0.32843960  0.53442610     0.17300
C1386       C  0.83620932  0.31684240  0.52313223    -0.31700
C1387       C  0.82062242  0.30947884  0.52782281     0.21700
C1388       C  0.81295793  0.31327545  0.54323136     0.03900
C1389       C  0.82034791  0.32500530  0.55446083    -0.21400
C1390       C  0.83580573  0.33257525  0.54962545     0.13100
S1391       S  0.86253860  0.33867183  0.53107864    -0.05100
C1392       C  0.85947619  0.34938511  0.54996697    -0.08600
C1393       C  0.84484596  0.34449856  0.55862705    -0.25200
S1394       S  0.79435818  0.30258428  0.54678920    -0.02400
C1395       C  0.79672002  0.29311878  0.52715363    -0.15800
C1396       C  0.81128138  0.29806210  0.51846130    -0.13800
H1397       H  0.84226830  0.31373857  0.51117326     0.21500
H1398       H  0.81428717  0.32813089  0.56641478     0.17600
H1399       H  0.84091007  0.34958648  0.57078521     0.20100
H1400       H  0.81494148  0.29339577  0.50604968     0.13500
C1401       C  0.72995671  0.32123727  0.44381828     0.17300
C1402       C  0.73129296  0.33644451  0.43457711    -0.31700
C1403       C  0.71750749  0.34115858  0.42434696     0.21700
C1404       C  0.70310380  0.33108559  0.42322129     0.03900
C1405       C  0.70159222  0.31604440  0.43276136    -0.21400
C1406       C  0.71532865  0.31141154  0.44314989     0.13100
S1407       S  0.74547336  0.31317948  0.45660544    -0.05100
C1408       C  0.73201283  0.29657149  0.46152683    -0.08600
C1409       C  0.71634666  0.29730741  0.45345983    -0.25200
S1410       S  0.68807859  0.33878458  0.40964415    -0.02400
C1411       C  0.70133732  0.35579218  0.40532478    -0.15800
C1412       C  0.71638968  0.35554104  0.41450266    -0.13800
H1413       H  0.74263634  0.34421685  0.43525378     0.21500
H1414       H  0.69024813  0.30827475  0.43206580     0.17600
H1415       H  0.70633433  0.28796008  0.45493144     0.20100
H1416       H  0.72594682  0.36542655  0.41430557     0.13500
C1417       C  0.66083597  0.29133084  0.57927061     0.17300
C1418       C  0.66616327  0.28483268  0.56354333    -0.31700
C1419       C  0.68366049  0.28248749  0.56102968     0.21700
C1420       C  0.69531331  0.28638879  0.57364562     0.03900
C1421       C  0.69002143  0.29316839  0.58923928    -0.21400
C1422       C  0.67255385  0.29558375  0.59172172     0.13100
S1423       S  0.64015117  0.29441081  0.58511773    -0.05100
C1424       C  0.64742572  0.30169937  0.60440395    -0.08600
C1425       C  0.66492190  0.30176961  0.60611562    -0.25200
S1426       S  0.71586578  0.28188325  0.56848001    -0.02400
C1427       C  0.70877718  0.27479128  0.54901491    -0.15800
C1428       C  0.69133501  0.27597982  0.54677023    -0.13800
H1429       H  0.65705465  0.28153455  0.55378410     0.21500
H1430       H  0.69911347  0.29623566  0.59909025     0.17600
H1431       H  0.67163377  0.30572350  0.61744919     0.20100
H1432       H  0.68460500  0.27198237  0.53546204     0.13500
C1433       C  0.78620149  0.19241838  0.57253064     0.17300
C1434       C  0.79527008  0.18673666  0.58677517    -0.31700
C1435       C  0.79416928  0.16945101  0.59099664     0.21700
C1436       C  0.78434960  0.15830195  0.58154076     0.03900
C1437       C  0.77548383  0.16393590  0.56709957    -0.21400
C1438       C  0.77671506  0.18123344  0.56277907     0.13100
S1439       S  0.78553077  0.21300315  0.56570075    -0.05100
C1440       C  0.77261151  0.20651854  0.54927100    -0.08600
C1441       C  0.76902843  0.18923016  0.54925863    -0.25200
S1442       S  0.78412385  0.13797199  0.58926074    -0.02400
C1443       C  0.79745648  0.14458391  0.60535395    -0.15800
C1444       C  0.80190452  0.16160208  0.60451803    -0.13800
H1445       H  0.80275248  0.19545377  0.59433450     0.21500
H1446       H  0.76786801  0.15524979  0.55963946     0.17600
H1447       H  0.76102511  0.18292125  0.54002589     0.20100
H1448       H  0.81002015  0.16798004  0.61360504     0.13500
C1449       C  0.79638364  0.07864133  0.67242579     0.17300
C1450       C  0.79761971  0.06431813  0.68298520    -0.31700
C1451       C  0.78367261  0.06037508  0.69340445     0.21700
C1452       C  0.76910465  0.07023238  0.69328350     0.03900
C1453       C  0.76797923  0.08473192  0.68292297    -0.21400
C1454       C  0.78196081  0.08867969  0.67251529     0.13100
S1455       S  0.81173144  0.08526345  0.65854599    -0.05100
C1456       C  0.79855844  0.10167334  0.65254433    -0.08600
C1457       C  0.78325746  0.10209502  0.66139156    -0.25200
S1458       S  0.75330248  0.06284717  0.70626776    -0.02400
C1459       C  0.76653529  0.04639797  0.71208242    -0.15800
C1460       C  0.78234285  0.04677661  0.70429203    -0.13800
H1461       H  0.80889751  0.05648189  0.68294604     0.21500
H1462       H  0.75662734  0.09246319  0.68281099     0.17600
H1463       H  0.77357716  0.11170369  0.65990462     0.20100
H1464       H  0.79218440  0.03738395  0.70618564     0.13500
C1465       C  0.68518518  0.06227990  0.79327285     0.17300
C1466       C  0.67790251  0.07406435  0.80445931    -0.31700
C1467       C  0.66386442  0.08337484  0.79866429     0.21700
C1468       C  0.65711320  0.08076386  0.78261988     0.03900
C1469       C  0.66442725  0.06903741  0.77140759    -0.21400
C1470       C  0.67870936  0.06002133  0.77704708     0.13100
S1471       S  0.70253526  0.05005594  0.79769882    -0.05100
C1472       C  0.70132806  0.04210635  0.77731980    -0.08600
C1473       C  0.68797328  0.04853901  0.76780038    -0.25200
S1474       S  0.63996058  0.09317436  0.77808558    -0.02400
C1475       C  0.64250999  0.10282421  0.79761716    -0.15800
C1476       C  0.65547385  0.09591435  0.80735875    -0.13800
H1477       H  0.68311647  0.07608069  0.81702837     0.21500
H1478       H  0.65935526  0.06720119  0.75875216     0.17600
H1479       H  0.68525052  0.04507809  0.75476625     0.20100
H1480       H  0.65882820  0.10011793  0.82001811     0.13500
C1481       C  0.67821640  0.19352207  0.47718940     0.17300
C1482       C  0.66180663  0.18729656  0.47392907    -0.31700
C1483       C  0.66034410  0.17155992  0.46567280     0.21700
C1484       C  0.67459838  0.16244086  0.46083691     0.03900
C1485       C  0.69099451  0.16851168  0.46440602    -0.21400
C1486       C  0.69245731  0.18422975  0.47269328     0.13100
S1487       S  0.68271247  0.21267277  0.48637760    -0.05100
C1488       C  0.70403338  0.20806876  0.48435056    -0.08600
C1489       C  0.70730024  0.19241805  0.47694187    -0.25200
S1490       S  0.67015649  0.14397709  0.45029680    -0.02400
C1491       C  0.64889819  0.14843315  0.45271072    -0.15800
C1492       C  0.64552189  0.16349053  0.46115029    -0.13800
H1493       H  0.65066681  0.19450886  0.47747637     0.21500
H1494       H  0.70213721  0.16138985  0.46068917     0.17600
H1495       H  0.71987317  0.18744208  0.47448764     0.20100
H1496       H  0.63290439  0.16829529  0.46371181     0.13500
C1497       C  0.66041240  0.95292987  0.67654947     0.17300
C1498       C  0.67060071  0.95134197  0.69108439    -0.31700
C1499       C  0.68276155  0.96403378  0.69409957     0.21700
C1500       C  0.68463320  0.97774903  0.68314948     0.03900
C1501       C  0.67469746  0.97912686  0.66838981    -0.21400
C1502       C  0.66254730  0.96639643  0.66536866     0.13100
S1503       S  0.64464616  0.93914559  0.67097340    -0.05100
C1504       C  0.64068867  0.95164044  0.65336816    -0.08600
C1505       C  0.65151042  0.96555568  0.65186403    -0.25200
S1506       S  0.69930916  0.99236260  0.68966387    -0.02400
C1507       C  0.70317421  0.97973671  0.70719658    -0.15800
C1508       C  0.69354646  0.96497008  0.70779413    -0.13800
H1509       H  0.66896058  0.94078479  0.69978841     0.21500
H1510       H  0.67617059  0.98979978  0.65979811     0.17600
H1511       H  0.65154736  0.97449143  0.64139651     0.20100
H1512       H  0.69400390  0.95571466  0.71799057     0.13500
C1513       C  0.52963658  0.13622234  0.62839915     0.17300
C1514       C  0.51334308  0.14321272  0.62935163    -0.31700
C1515       C  0.49953567  0.13205987  0.62794622     0.21700
C1516       C  0.50183480  0.11471435  0.62603901     0.03900
C1517       C  0.51810329  0.10776067  0.62487625    -0.21400
C1518       C  0.53189727  0.11893046  0.62593597     0.13100
S1519       S  0.54804092  0.14753978  0.62986959    -0.05100
C1520       C  0.55882072  0.12881474  0.62666629    -0.08600
C1521       C  0.54864762  0.11461706  0.62475700    -0.25200
S1522       S  0.48352219  0.10326135  0.62501609    -0.02400
C1523       C  0.47256973  0.12209803  0.62668560    -0.15800
C1524       C  0.48275100  0.13641521  0.62812457    -0.13800
H1525       H  0.51150978  0.15673352  0.63102812     0.21500
H1526       H  0.51992652  0.09424940  0.62312680     0.17600
H1527       H  0.55326782  0.10182769  0.62278637     0.20100
H1528       H  0.47816598  0.14932531  0.62902769     0.13500
C1529       C  0.61402164  0.12085028  0.53136088     0.17300
C1530       C  0.60671830  0.12096454  0.51516512    -0.31700
C1531       C  0.61770882  0.12213895  0.50120542     0.21700
C1532       C  0.63519076  0.12281214  0.50322543     0.03900
C1533       C  0.64248902  0.12296197  0.51941830    -0.21400
C1534       C  0.63148241  0.12215033  0.53338643     0.13100
S1535       S  0.60287711  0.11967033  0.54992342    -0.05100
C1536       C  0.62191477  0.12152374  0.56045221    -0.08600
C1537       C  0.63608322  0.12274402  0.55010522    -0.25200
S1538       S  0.64632113  0.12400616  0.48469559    -0.02400
C1539       C  0.62717284  0.12413056  0.47410457    -0.15800
C1540       C  0.61301319  0.12308257  0.48453002    -0.13800
H1541       H  0.59307933  0.12033582  0.51352089     0.21500
H1542       H  0.65611395  0.12386977  0.52105902     0.17600
H1543       H  0.64901735  0.12405489  0.55459628     0.20100
H1544       H  0.59997720  0.12347597  0.48021929     0.13500
C1545       C  0.62241505  0.03320780  0.64179212     0.17300
C1546       C  0.62149694  0.01718261  0.64959112    -0.31700
C1547       C  0.62030218  0.00294069  0.63896188     0.21700
C1548       C  0.62039811  0.00459561  0.62139141     0.03900
C1549       C  0.62102206  0.02056986  0.61363555    -0.21400
C1550       C  0.62184725  0.03477807  0.62422858     0.13100
S1551       S  0.62402230  0.05211718  0.65229296    -0.05100
C1552       C  0.62332447  0.06212596  0.63280221    -0.08600
C1553       C  0.62215414  0.05133944  0.61901206    -0.25200
S1554       S  0.61961316  0.98591960  0.61061950    -0.02400
C1555       C  0.61876639  0.97567435  0.62997098    -0.15800
C1556       C  0.61905467  0.98629807  0.64400184    -0.13800
H1557       H  0.62167208  0.01587798  0.66329749     0.21500
H1558       H  0.62082647  0.02186948  0.59992648     0.17600
H1559       H  0.62166429  0.05542104  0.60585947     0.20100
H1560       H  0.61853829  0.98205284  0.65709575     0.13500
C1561       C  0.61476482  0.24959928  0.62309462     0.17300
C1562       C  0.60723318  0.23350152  0.62321283    -0.31700
C1563       C  0.61783857  0.21951169  0.62061622     0.21700
C1564       C  0.63509712  0.22143881  0.61754622     0.03900
C1565       C  0.64266274  0.23754191  0.61765079    -0.21400
C1566       C  0.63211507  0.25150392  0.62072520     0.13100
S1567       S  0.60412237  0.26812219  0.62620068    -0.05100
C1568       C  0.62335804  0.27857671  0.62492148    -0.08600
C1569       C  0.63716227  0.26806265  0.62200229    -0.25200
S1570       S  0.64574332  0.20282927  0.61464270    -0.02400
C1571       C  0.62685080  0.19240616  0.61830794    -0.15800
C1572       C  0.61305712  0.20284093  0.62121899    -0.13800
H1573       H  0.59375012  0.23193093  0.62549668     0.21500
H1574       H  0.65619779  0.23909952  0.61568892     0.17600
H1575       H  0.65024771  0.27218610  0.62117718     0.20100
H1576       H  0.60028840  0.19843391  0.62392932     0.13500
C1577       C  0.74639015  0.11321241  0.62479798     0.17300
C1578       C  0.73015873  0.10595766  0.62401936    -0.31700
C1579       C  0.71624558  0.11699761  0.62457367     0.21700
C1580       C  0.71840734  0.13448606  0.62534813     0.03900
C1581       C  0.73458457  0.14170548  0.62633230    -0.21400
C1582       C  0.74843821  0.13066178  0.62625946     0.13100
S1583       S  0.76495002  0.10207710  0.62446654    -0.05100
C1584       C  0.77538683  0.12114480  0.62704607    -0.08600
C1585       C  0.76505694  0.13527682  0.62769217    -0.25200
S1586       S  0.70004501  0.14579845  0.62530896    -0.02400
C1587       C  0.68936535  0.12676220  0.62487158    -0.15800
C1588       C  0.69946907  0.11244602  0.62453189    -0.13800
H1589       H  0.72844946  0.09233538  0.62320299     0.21500
H1590       H  0.73629461  0.15532256  0.62727390     0.17600
H1591       H  0.76952018  0.14820063  0.62923003     0.20100
H1592       H  0.69478656  0.09950935  0.62409679     0.13500
C1593       C  0.63494339  0.13442848  0.74761459     0.17300
C1594       C  0.64270434  0.13439105  0.73157895    -0.31700
C1595       C  0.63207417  0.13501724  0.71730975     0.21700
C1596       C  0.61457177  0.13632916  0.71893874     0.03900
C1597       C  0.60682438  0.13616235  0.73492729    -0.21400
C1598       C  0.61739023  0.13482991  0.74913513     0.13100
S1599       S  0.64547559  0.13303579  0.76651733    -0.05100
C1600       C  0.62593179  0.13175194  0.77635641    -0.08600
C1601       C  0.61214051  0.13316460  0.76558492    -0.25200
S1602       S  0.60385369  0.13716000  0.70018263    -0.02400
C1603       C  0.62307294  0.13497303  0.69004432    -0.15800
C1604       C  0.63703790  0.13399268  0.70066289    -0.13800
H1605       H  0.65636351  0.13348292  0.73027888     0.21500
H1606       H  0.59313725  0.13659701  0.73621965     0.17600
H1607       H  0.59898120  0.13248304  0.76953737     0.20100
H1608       H  0.65003682  0.13246890  0.69642498     0.13500
C1609       C  0.80467355  0.03064582  0.82228734     0.17300
C1610       C  0.81032667  0.03728492  0.83781260    -0.31700
C1611       C  0.82790231  0.03845060  0.84041277     0.21700
C1612       C  0.83937495  0.03308844  0.82815552     0.03900
C1613       C  0.83370644  0.02663035  0.81252272    -0.21400
C1614       C  0.81609476  0.02559180  0.80986087     0.13100
S1615       S  0.78387479  0.02787832  0.81692375    -0.05100
C1616       C  0.79051655  0.02000170  0.79759077    -0.08600
C1617       C  0.80803759  0.01958204  0.79556730    -0.25200
S1618       S  0.86018706  0.03495726  0.83406380    -0.02400
C1619       C  0.85330637  0.04323601  0.85309079    -0.15800
C1620       C  0.83584834  0.04446119  0.85471116    -0.13800
H1621       H  0.80140199  0.04128124  0.84748860     0.21500
H1622       H  0.84262936  0.02249690  0.80290631     0.17600
H1623       H  0.81451861  0.01492340  0.78436467     0.20100
H1624       H  0.82935413  0.04917636  0.86588304     0.13500
C1625       C  0.70705390  0.90642833  0.82607219     0.17300
C1626       C  0.71306365  0.91261295  0.81044591    -0.31700
C1627       C  0.71579919  0.93015963  0.80891834     0.21700
C1628       C  0.71275585  0.94108759  0.82237415     0.03900
C1629       C  0.70653897  0.93493380  0.83795676    -0.21400
C1630       C  0.70372266  0.91737892  0.83945659     0.13100
S1631       S  0.70348087  0.88549179  0.83060758    -0.05100
C1632       C  0.69733174  0.89156593  0.85066965    -0.08600
C1633       C  0.69793039  0.90889927  0.85360529    -0.25200
S1634       S  0.71739682  0.96187289  0.81808190    -0.02400
C1635       C  0.72333987  0.95580803  0.79786906    -0.15800
C1636       C  0.72176883  0.93853687  0.79479718    -0.13800
H1637       H  0.71563955  0.90409376  0.79997379     0.21500
H1638       H  0.70412942  0.94343389  0.84848423     0.17600
H1639       H  0.69468521  0.91487814  0.86555597     0.20100
H1640       H  0.72500815  0.93240111  0.78292351     0.13500
C1641       C  0.83636952  0.92738709  0.70755878     0.17300
C1642       C  0.82895228  0.94341088  0.71002536    -0.31700
C1643       C  0.81324783  0.94409435  0.71852690     0.21700
C1644       C  0.80514376  0.92943824  0.72407556     0.03900
C1645       C  0.81265409  0.91342508  0.72179015    -0.21400
C1646       C  0.82849262  0.91276554  0.71353734     0.13100
S1647       S  0.85532526  0.92385824  0.69748757    -0.05100
C1648       C  0.85286452  0.90252983  0.70178278    -0.08600
C1649       C  0.83797909  0.89845560  0.71037055    -0.25200
S1650       S  0.78599462  0.93295882  0.73376843    -0.02400
C1651       C  0.78906354  0.95446575  0.73069978    -0.15800
C1652       C  0.80416717  0.95848951  0.72241880    -0.13800
H1653       H  0.83518985  0.95486221  0.70556654     0.21500
H1654       H  0.80645139  0.90198068  0.72631486     0.17600
H1655       H  0.83432114  0.88570178  0.71406716     0.20100
H1656       H  0.80827365  0.97127849  0.71937129     0.13500
C1657       C  0.75072959  0.87773700  0.87115178     0.17300
C1658       C  0.76701469  0.88476719  0.86964543    -0.31700
C1659       C  0.78086213  0.87382852  0.87170366     0.21700
C1660       C  0.77860473  0.85670818  0.87529528     0.03900
C1661       C  0.76232045  0.84961620  0.87635948    -0.21400
C1662       C  0.74848220  0.86052211  0.87411304     0.13100
S1663       S  0.73231964  0.88892168  0.86968663    -0.05100
C1664       C  0.72136458  0.87011822  0.87265625    -0.08600
C1665       C  0.73170746  0.85601406  0.87467239    -0.25200
S1666       S  0.79698722  0.84577252  0.87843165    -0.02400
C1667       C  0.80782123  0.86438918  0.87450129    -0.15800
C1668       C  0.79765720  0.87826943  0.87096062    -0.13800
H1669       H  0.76881066  0.89818652  0.86715601     0.21500
H1670       H  0.76051067  0.83622884  0.87900897     0.17600
H1671       H  0.72731970  0.84308266  0.87623757     0.20100
H1672       H  0.80230281  0.89098780  0.86842127     0.13500
C1673       C  0.88454934  0.77234413  0.87319862     0.17300
C1674       C  0.89181810  0.75614871  0.87279487    -0.31700
C1675       C  0.88077790  0.74216877  0.87297861     0.21700
C1676       C  0.86328443  0.74419327  0.87321582     0.03900
C1677       C  0.85602238  0.76037113  0.87392433    -0.21400
C1678       C  0.86706646  0.77433988  0.87408610     0.13100
S1679       S  0.89571961  0.79093769  0.87280085    -0.05100
C1680       C  0.87664541  0.80142964  0.87438719    -0.08600
C1681       C  0.86246136  0.79103639  0.87501987    -0.25200
S1682       S  0.85207399  0.72565991  0.87306307    -0.02400
C1683       C  0.87119415  0.71504575  0.87337149    -0.15800
C1684       C  0.88540655  0.72545366  0.87320127    -0.13800
H1685       H  0.90546424  0.75451362  0.87242200     0.21500
H1686       H  0.84237861  0.76199568  0.87442975     0.17600
H1687       H  0.84948536  0.79548973  0.87586776     0.20100
H1688       H  0.89840668  0.72105457  0.87367799     0.13500
C1689       C  0.96775514  0.86865925  0.88527373     0.17300
C1690       C  0.98434208  0.86922388  0.89167577    -0.31700
C1691       C  0.99767004  0.87003917  0.87986121     0.21700
C1692       C  0.99458835  0.87047087  0.86249635     0.03900
C1693       C  0.97809723  0.86921678  0.85611040    -0.21400
C1694       C  0.96481928  0.86827185  0.86788806     0.13100
S1695       S  0.94974204  0.86887893  0.89737742    -0.05100
C1696       C  0.93828419  0.86794747  0.87877923    -0.08600
C1697       C  0.94793580  0.86756202  0.86409548    -0.25200
S1698       S  0.01217855  0.87329946  0.85025291    -0.02400
C1699       C  0.02391731  0.87354648  0.86870893    -0.15800
C1700       C  0.01462216  0.87126737  0.88349950    -0.13800
H1701       H  0.98673182  0.86944037  0.90522704     0.21500
H1702       H  0.97568831  0.86942310  0.84255833     0.17600
H1703       H  0.94283696  0.86724448  0.85131490     0.20100
H1704       H  0.01994458  0.87111461  0.89618342     0.13500
C1705       C  0.87186247  0.85812741  0.97179607     0.17300
C1706       C  0.87384778  0.85154636  0.98822296    -0.31700
C1707       C  0.87496045  0.86315349  0.00165810     0.21700
C1708       C  0.87365871  0.88051729  0.99899755     0.03900
C1709       C  0.87191266  0.88711371  0.98254056    -0.21400
C1710       C  0.87128071  0.87552548  0.96904211     0.13100
S1711       S  0.87068582  0.84619887  0.95372413    -0.05100
C1712       C  0.87003273  0.86487521  0.94233750    -0.08600
C1713       C  0.87043374  0.87947347  0.95211539    -0.25200
S1714       S  0.87473906  0.89240973  0.01710817    -0.02400
C1715       C  0.87776678  0.87379056  0.02825743    -0.15800
C1716       C  0.87750496  0.85923700  0.01838457    -0.13800
H1717       H  0.87471301  0.83799454  0.99041654     0.21500
H1718       H  0.87129166  0.90067571  0.98033186     0.17600
H1719       H  0.87031608  0.89228260  0.94706670     0.20100
H1720       H  0.87922862  0.84646385  0.02317878     0.13500
C1721       C  0.87465324  0.86341835  0.78211301     0.17300
C1722       C  0.87524506  0.85723100  0.76550502    -0.31700
C1723       C  0.87430587  0.86908399  0.75228722     0.21700
C1724       C  0.87306868  0.88637169  0.75536601     0.03900
C1725       C  0.87215237  0.89255956  0.77201190    -0.21400
C1726       C  0.87284181  0.88065263  0.78527165     0.13100
S1727       S  0.87607844  0.85107596  0.79985129    -0.05100
C1728       C  0.87369436  0.86926078  0.81165063    -0.08600
C1729       C  0.87205494  0.88407247  0.80229053    -0.25200
S1730       S  0.87285332  0.89865343  0.73746943    -0.02400
C1731       C  0.87416494  0.88019713  0.72580537    -0.15800
C1732       C  0.87467312  0.86545318  0.73537362    -0.13800
H1733       H  0.87648182  0.84377492  0.76298990     0.21500
H1734       H  0.87101182  0.90602389  0.77451621     0.17600
H1735       H  0.87065838  0.89664162  0.80766433     0.20100
H1736       H  0.87525816  0.85272935  0.73025113     0.13500
C1737       C  0.88376209  0.96140452  0.87722836     0.17300
C1738       C  0.89154849  0.97739506  0.87703005    -0.31700
C1739       C  0.88100427  0.99163986  0.87608655     0.21700
C1740       C  0.86346120  0.99007349  0.87554154     0.03900
C1741       C  0.85567381  0.97404995  0.87521689    -0.21400
C1742       C  0.86625366  0.95977542  0.87600134     0.13100
S1743       S  0.89435138  0.94265855  0.87911828    -0.05100
C1744       C  0.87505330  0.93247815  0.87776730    -0.08600
C1745       C  0.86117509  0.94311644  0.87602037    -0.25200
S1746       S  0.85290853  0.00894566  0.87563383    -0.02400
C1747       C  0.87238500  0.01902083  0.87622659    -0.15800
C1748       C  0.88621521  0.00822332  0.87605104    -0.13800
H1749       H  0.90521890  0.97868507  0.87783235     0.21500
H1750       H  0.84199096  0.97277126  0.87462206     0.17600
H1751       H  0.84810882  0.93888740  0.87509855     0.20100
H1752       H  0.89935693  0.01229822  0.87617345     0.13500
C1753       C  0.02330288  0.80706925  0.82030867     0.17300
C1754       C  0.02588786  0.81497085  0.83608603    -0.31700
C1755       C  0.03525911  0.83018202  0.83630088     0.21700
C1756       C  0.04199352  0.83708739  0.82150831     0.03900
C1757       C  0.03928051  0.82927044  0.80572920    -0.21400
C1758       C  0.02967947  0.81421874  0.80548018     0.13100
S1759       S  0.01228724  0.78855199  0.81727985    -0.05100
C1760       C  0.01597079  0.79066836  0.79575312    -0.08600
C1761       C  0.02539407  0.80495472  0.79135604    -0.25200
S1762       S  0.05306016  0.85556539  0.82445687    -0.02400
C1763       C  0.04815509  0.85425796  0.84576324    -0.15800
C1764       C  0.03872236  0.84002079  0.85027405    -0.13800
H1765       H  0.02071750  0.80956732  0.84766921     0.21500
H1766       H  0.04431649  0.83476012  0.79412623     0.17600
H1767       H  0.02901625  0.80832952  0.77849072     0.20100
H1768       H  0.03443262  0.83718282  0.86306110     0.13500
C1769       C  0.92052037  0.84236630  0.71738577     0.17300
C1770       C  0.93499743  0.83604045  0.72574556    -0.31700
C1771       C  0.93798178  0.81842004  0.72513278     0.21700
C1772       C  0.92686061  0.80758735  0.71682795     0.03900
C1773       C  0.91251885  0.81392367  0.70834012    -0.21400
C1774       C  0.90970665  0.83153069  0.70867974     0.13100
S1775       S  0.91449748  0.86326976  0.71668518    -0.05100
C1776       C  0.89742816  0.85735435  0.70426569    -0.08600
C1777       C  0.89658159  0.84007977  0.70095683    -0.25200
S1778       S  0.93241469  0.78661814  0.71785301    -0.02400
C1779       C  0.95019803  0.79239306  0.72926533    -0.15800
C1780       C  0.95148693  0.80979084  0.73217818    -0.13800
H1781       H  0.94358266  0.84448651  0.73238741     0.21500
H1782       H  0.90394045  0.80547905  0.70168786     0.17600
H1783       H  0.88669507  0.83407080  0.69352229     0.20100
H1784       H  0.96170939  0.81579216  0.73915349     0.13500
C1785       C  0.92386457  0.71673692  0.80776676     0.17300
C1786       C  0.90781846  0.71449082  0.81525668    -0.31700
C1787       C  0.90691446  0.70515265  0.83046587     0.21700
C1788       C  0.92130273  0.69808581  0.83773599     0.03900
C1789       C  0.93737039  0.70050773  0.83035744    -0.21400
C1790       C  0.93831424  0.71011120  0.81531632     0.13100
S1791       S  0.92766768  0.72766766  0.78933208    -0.05100
C1792       C  0.94901513  0.72367980  0.79204301    -0.08600
C1793       C  0.95280300  0.71419068  0.80644046    -0.25200
S1794       S  0.91746485  0.68678687  0.85593696    -0.02400
C1795       C  0.89634661  0.69206066  0.85401216    -0.15800
C1796       C  0.89254879  0.70183628  0.83983576    -0.13800
H1797       H  0.89654193  0.71985923  0.80952387     0.21500
H1798       H  0.94865650  0.69520814  0.83613604     0.17600
H1799       H  0.96548467  0.71044473  0.81018716     0.20100
H1800       H  0.87994198  0.70621851  0.83656383     0.13500
C1801       C  0.08193444  0.66371678  0.78047902     0.17300
C1802       C  0.07145011  0.67173432  0.76848092    -0.31700
C1803       C  0.06084317  0.68486152  0.77417464     0.21700
C1804       C  0.06065890  0.68974662  0.79109291     0.03900
C1805       C  0.07133760  0.68185214  0.80305498    -0.21400
C1806       C  0.08198658  0.66872948  0.79733065     0.13100
S1807       S  0.09530602  0.64728602  0.77616821    -0.05100
C1808       C  0.10162185  0.64726414  0.79722211    -0.08600
C1809       C  0.09319700  0.65937006  0.80697914    -0.25200
S1810       S  0.04641752  0.70552079  0.79553108    -0.02400
C1811       C  0.04069195  0.70566238  0.77433985    -0.15800
C1812       C  0.04954757  0.69402305  0.76448389    -0.13800
H1813       H  0.07145987  0.66780554  0.75529800     0.21500
H1814       H  0.07124151  0.68567562  0.81626688     0.17600
H1815       H  0.09519899  0.66131904  0.82044549     0.20100
H1816       H  0.04764555  0.69217802  0.75098052     0.13500
C1817       C  0.05528492  0.78768595  0.68809454     0.17300
C1818       C  0.06390026  0.79959911  0.67790560    -0.31700
C1819       C  0.07707441  0.79365050  0.66744808     0.21700
C1820       C  0.08148913  0.77664859  0.66723813     0.03900
C1821       C  0.07288967  0.76474056  0.67738549    -0.21400
C1822       C  0.05967639  0.77065022  0.68775349     0.13100
S1823       S  0.03898483  0.79228408  0.70168576    -0.05100
C1824       C  0.03798817  0.77099903  0.70687979    -0.08600
C1825       C  0.04978220  0.76100979  0.69845456    -0.25200
S1826       S  0.09786303  0.77200328  0.65388574    -0.02400
C1827       C  0.09883412  0.79318807  0.64815773    -0.15800
C1828       C  0.08695964  0.80318744  0.65658836    -0.13800
H1829       H  0.06048077  0.81290689  0.67811565     0.21500
H1830       H  0.07634105  0.75143900  0.67719040     0.17600
H1831       H  0.05111779  0.74742363  0.70013729     0.20100
H1832       H  0.08555142  0.81675092  0.65485923     0.13500
C1833       C  0.94736910  0.66746301  0.66716873     0.17300
C1834       C  0.94497791  0.68106167  0.67849718    -0.31700
C1835       C  0.95907866  0.68661510  0.68798107     0.21700
C1836       C  0.97479497  0.67891605  0.68622175     0.03900
C1837       C  0.97709436  0.66522744  0.67508410    -0.21400
C1838       C  0.96304423  0.65972996  0.66560569     0.13100
S1839       S  0.93209419  0.65891916  0.65431979    -0.05100
C1840       C  0.94697861  0.64473852  0.64658244    -0.08600
C1841       C  0.96288790  0.64668016  0.65405923    -0.25200
S1842       S  0.99044640  0.68768432  0.69838134    -0.02400
C1843       C  0.97575535  0.70193298  0.70611675    -0.15800
C1844       C  0.95950859  0.69979148  0.69949386    -0.13800
H1845       H  0.93271211  0.68711531  0.67976918     0.21500
H1846       H  0.98937456  0.65921030  0.67374340     0.17600
H1847       H  0.97388127  0.63892973  0.65169979     0.20100
H1848       H  0.94867101  0.70757562  0.70275068     0.13500
C1849       C  0.13617664  0.61793640  0.50275494     0.17300
C1850       C  0.14090789  0.61301367  0.51920131    -0.31700
C1851       C  0.13094057  0.61882443  0.53277577     0.21700
C1852       C  0.11698638  0.62920752  0.53014279     0.03900
C1853       C  0.11227182  0.63416623  0.51371243    -0.21400
C1854       C  0.12214825  0.62826126  0.50013963     0.13100
S1855       S  0.14615876  0.61162613  0.48453833    -0.05100
C1856       C  0.13113743  0.62291667  0.47342535    -0.08600
C1857       C  0.11924065  0.63123308  0.48326291    -0.25200
S1858       S  0.10667893  0.63506609  0.54830226    -0.02400
C1859       C  0.12127480  0.62333116  0.55958834    -0.15800
C1860       C  0.13341784  0.61533839  0.54965149    -0.13800
H1861       H  0.15176700  0.60487384  0.52131380     0.21500
H1862       H  0.10131293  0.64216900  0.51158989     0.17600
H1863       H  0.10876761  0.63857440  0.47825089     0.20100
H1864       H  0.14368220  0.60761592  0.55453542     0.13500
C1865       C  0.13372789  0.52766794  0.62390397     0.17300
C1866       C  0.14003938  0.51145028  0.62051904    -0.31700
C1867       C  0.13081703  0.49757796  0.62681686     0.21700
C1868       C  0.11602363  0.49969441  0.63621274     0.03900
C1869       C  0.10991027  0.51594457  0.63989596    -0.21400
C1870       C  0.11906178  0.52982646  0.63344693     0.13100
S1871       S  0.14252192  0.54605951  0.61651761    -0.05100
C1872       C  0.12627127  0.55678004  0.62641095    -0.08600
C1873       C  0.11478733  0.54655497  0.63505286    -0.25200
S1874       S  0.10600288  0.48119835  0.64164339    -0.02400
C1875       C  0.12187671  0.47070892  0.63098002    -0.15800
C1876       C  0.13437218  0.48087519  0.62397034    -0.13800
H1877       H  0.15138579  0.50970660  0.61293182     0.21500
H1878       H  0.09829771  0.51768359  0.64706781     0.17600
H1879       H  0.10375204  0.55109721  0.64188606     0.20100
H1880       H  0.14500405  0.47625720  0.61658122     0.13500
C1881       C  0.02822411  0.61464768  0.63234636     0.17300
C1882       C  0.01205589  0.60835515  0.63627490    -0.31700
C1883       C  0.99808640  0.61687595  0.62938965     0.21700
C1884       C  0.00006290  0.63123143  0.61926528     0.03900
C1885       C  0.01626294  0.63747007  0.61526755    -0.21400
C1886       C  0.03026261  0.62878013  0.62196420     0.13100
S1887       S  0.04673898  0.60588652  0.63921970    -0.05100
C1888       C  0.05739977  0.62124264  0.62775088    -0.08600
C1889       C  0.04702253  0.63262738  0.61924779    -0.25200
S1890       S  0.98145547  0.63999128  0.61245572    -0.02400
C1891       C  0.97110144  0.62393993  0.62314436    -0.15800
C1892       C  0.98141053  0.61251354  0.63153988    -0.13800
H1893       H  0.01044082  0.59722930  0.64424268     0.21500
H1894       H  0.01788539  0.64854247  0.60722853     0.17600
H1895       H  0.05149175  0.64305186  0.61140786     0.20100
H1896       H  0.97687955  0.60178593  0.63890986     0.13500
C1897       C  0.21719072  0.62063321  0.61377208     0.17300
C1898       C  0.23315793  0.61690790  0.60702074    -0.31700
C1899       C  0.24733703  0.62351672  0.61540264     0.21700
C1900       C  0.24578383  0.63351893  0.62983012     0.03900
C1901       C  0.22974664  0.63736957  0.63651932    -0.21400
C1902       C  0.21551843  0.63063392  0.62817457     0.13100
S1903       S  0.19854970  0.61333191  0.60566753    -0.05100
C1904       C  0.18830290  0.62378212  0.62188627    -0.08600
C1905       C  0.19888365  0.63255455  0.63288317    -0.25200
S1906       S  0.26470766  0.63989219  0.63835360    -0.02400
C1907       C  0.27456950  0.62884074  0.62233237    -0.15800
C1908       C  0.26386456  0.62084770  0.61100534    -0.13800
H1909       H  0.23448383  0.60901401  0.59584506     0.21500
H1910       H  0.22842766  0.64506830  0.64782813     0.17600
H1911       H  0.19465516  0.63978638  0.64378269     0.20100
H1912       H  0.26804415  0.61325255  0.60034051     0.13500
C1913       C  0.13241524  0.71632456  0.62971056     0.17300
C1914       C  0.13822016  0.73247514  0.63424509    -0.31700
C1915       C  0.12973814  0.74644947  0.62731970     0.21700
C1916       C  0.11611712  0.74449206  0.61628551     0.03900
C1917       C  0.11053371  0.72831517  0.61149106    -0.21400
C1918       C  0.11894559  0.71432070  0.61853213     0.13100
S1919       S  0.14045113  0.69781980  0.63745326    -0.05100
C1920       C  0.12548349  0.68724520  0.62552203    -0.08600
C1921       C  0.11496920  0.69760726  0.61597723    -0.25200
S1922       S  0.10681473  0.76306473  0.61013581    -0.02400
C1923       C  0.12145598  0.77336992  0.62260358    -0.15800
C1924       C  0.13301814  0.76309923  0.63081878    -0.13800
H1925       H  0.14864055  0.73407911  0.64307170     0.21500
H1926       H  0.09985423  0.72670450  0.60298404     0.17600
H1927       H  0.10481641  0.69316922  0.60783077     0.20100
H1928       H  0.14283715  0.76760723  0.63932041     0.13500
C1929       C  0.13219862  0.63178702  0.74830551     0.17300
C1930       C  0.13544753  0.63799901  0.73193442    -0.31700
C1931       C  0.12942568  0.62844863  0.71819427     0.21700
C1932       C  0.12054203  0.61339316  0.72061763     0.03900
C1933       C  0.11744971  0.60706890  0.73697541    -0.21400
C1934       C  0.12347805  0.61660662  0.75070570     0.13100
S1935       S  0.13766144  0.64197687  0.76662889    -0.05100
C1936       C  0.12792784  0.62564986  0.77747039    -0.08600
C1937       C  0.12116919  0.61289684  0.76752380    -0.25200
S1938       S  0.11395448  0.60390895  0.70231798    -0.02400
C1939       C  0.12346738  0.62029351  0.69126675    -0.15800
C1940       C  0.13121316  0.63244616  0.70134694    -0.13800
H1941       H  0.14218107  0.64985636  0.72999501     0.21500
H1942       H  0.11047129  0.59535266  0.73892024     0.17600
H1943       H  0.11437986  0.60193241  0.77238082     0.20100
H1944       H  0.13773119  0.64362855  0.69660673     0.13500
C1945       C  0.81224873  0.82135098  0.02943064     0.17300
C1946       C  0.81937170  0.83749243  0.03214463    -0.31700
C1947       C  0.83523516  0.83836088  0.04025132     0.21700
C1948       C  0.84351544  0.82381741  0.04571462     0.03900
C1949       C  0.83648263  0.80766362  0.04282187    -0.21400
C1950       C  0.82074855  0.80678092  0.03443787     0.13100
S1951       S  0.79310861  0.81758567  0.01985188    -0.05100
C1952       C  0.79671439  0.79610371  0.02222405    -0.08600
C1953       C  0.81197918  0.79226193  0.03020000    -0.25200
S1954       S  0.86245033  0.82762153  0.05568904    -0.02400
C1955       C  0.85940639  0.84897072  0.05200382    -0.15800
C1956       C  0.84437293  0.85283762  0.04370948    -0.13800
H1957       H  0.81286384  0.84888201  0.02804163     0.21500
H1958       H  0.84302572  0.79627313  0.04686565     0.17600
H1959       H  0.81637975  0.77951144  0.03285596     0.20100
H1960       H  0.84037822  0.86557162  0.04039979     0.13500
C1961       C  0.82219218  0.72143266  0.94041370     0.17300
C1962       C  0.83801198  0.71945759  0.93247842    -0.31700
C1963       C  0.83905916  0.70806840  0.91884582     0.21700
C1964       C  0.82501781  0.69891214  0.91340161     0.03900
C1965       C  0.80910810  0.70108786  0.92117906    -0.21400
C1966       C  0.80802262  0.71262883  0.93472994     0.13100
S1967       S  0.81847304  0.73423446  0.95749926    -0.05100
C1968       C  0.79750738  0.72797612  0.95681166    -0.08600
C1969       C  0.79373585  0.71650853  0.94397240    -0.25200
S1970       S  0.82910479  0.68541779  0.89688404    -0.02400
C1971       C  0.84979192  0.69256903  0.89705758    -0.15800
C1972       C  0.85330448  0.70450363  0.90948778    -0.13800
H1973       H  0.84905286  0.72644217  0.93679720     0.21500
H1974       H  0.79807902  0.69406881  0.91688838     0.17600
H1975       H  0.78129442  0.71105560  0.94175415     0.20100
H1976       H  0.86562211  0.71032014  0.91147346     0.13500
C1977       C  0.72416197  0.81784353  0.93972330     0.17300
C1978       C  0.72157724  0.83386104  0.93236140    -0.31700
C1979       C  0.71232964  0.83463316  0.91716609     0.21700
C1980       C  0.70572205  0.82010758  0.90970588     0.03900
C1981       C  0.70852206  0.80401743  0.91695213    -0.21400
C1982       C  0.71799627  0.80322793  0.93207448     0.13100
S1983       S  0.73474503  0.81439107  0.95832284    -0.05100
C1984       C  0.73121762  0.79295209  0.95570285    -0.08600
C1985       C  0.72217988  0.78883634  0.94110540    -0.25200
S1986       S  0.69435385  0.82389409  0.89157195    -0.02400
C1987       C  0.69898818  0.84516829  0.89386768    -0.15800
C1988       C  0.70859931  0.84904325  0.90807375    -0.13800
H1989       H  0.72653490  0.84525127  0.93825836     0.21500
H1990       H  0.70351475  0.79263429  0.91108394     0.17600
H1991       H  0.71864506  0.77605689  0.93745284     0.20100
H1992       H  0.71257565  0.86174043  0.91156186     0.13500
C1993       C  0.67245198  0.79971801  0.08006275     0.17300
C1994       C  0.68681244  0.80161177  0.06959100    -0.31700
C1995       C  0.69258143  0.78722895  0.06079449     0.21700
C1996       C  0.68446344  0.77166029  0.06248979     0.03900
C1997       C  0.67002232  0.76983677  0.07278736    -0.21400
C1998       C  0.66421702  0.78421925  0.08149003     0.13100
S1999       S  0.66334830  0.81554775  0.09170616    -0.05100
C2000       C  0.64822073  0.80116264  0.09867618    -0.08600
C2001       C  0.65026211  0.78498585  0.09193033    -0.25200
S2002       S  0.69354261  0.75564895  0.05114510    -0.02400
C2003       C  0.70836873  0.77006109  0.04378388    -0.15800
C2004       C  0.70626277  0.78643650  0.04992504    -0.13800
H2005       H  0.69318396  0.81375688  0.06833954     0.21500
H2006       H  0.66359890  0.75771003  0.07398817     0.17600
H2007       H  0.64183595  0.77433479  0.09397223     0.20100
H2008       H  0.71436201  0.79711755  0.04672676     0.13500
C2009       C  0.78245703  0.66277331  0.08414744     0.17300
C2010       C  0.77085948  0.67146721  0.07382724    -0.31700
C2011       C  0.77704463  0.68488062  0.06381303     0.21700
C2012       C  0.79406969  0.68940105  0.06395614     0.03900
C2013       C  0.80568166  0.68073676  0.07443421    -0.21400
C2014       C  0.79942943  0.66733509  0.08457401     0.13100
S2015       S  0.77735133  0.64620769  0.09711719    -0.05100
C2016       C  0.79822794  0.64541594  0.10386139    -0.08600
C2017       C  0.80853855  0.65743992  0.09579544    -0.25200
S2018       S  0.79896515  0.70588680  0.05053220    -0.02400
C2019       C  0.77780557  0.70674618  0.04479525    -0.15800
C2020       C  0.76767104  0.69480308  0.05297264    -0.13800
H2021       H  0.75756344  0.66792187  0.07362011     0.21500
H2022       H  0.81897297  0.68428549  0.07467681     0.17600
H2023       H  0.82197201  0.65909877  0.09816874     0.20100
H2024       H  0.75413717  0.69335160  0.05099165     0.13500
C2025       C  0.67233612  0.66962848  0.95048456     0.17300
C2026       C  0.68637068  0.68056703  0.94879244    -0.31700
C2027       C  0.69191047  0.68926697  0.96335256     0.21700
C2028       C  0.68377357  0.68720500  0.97887107     0.03900
C2029       C  0.66951837  0.67656400  0.98045517    -0.21400
C2030       C  0.66405374  0.66779825  0.96592324     0.13100
S2031       S  0.66402206  0.65747086  0.93456911    -0.05100
C2032       C  0.64925296  0.64958645  0.94885668    -0.08600
C2033       C  0.65066438  0.65661301  0.96501683    -0.25200
S2034       S  0.69282709  0.69830635  0.99516454    -0.02400
C2035       C  0.70770603  0.70598243  0.98094208    -0.15800
C2036       C  0.70555804  0.70016373  0.96441705    -0.13800
H2037       H  0.69283612  0.68204264  0.93671536     0.21500
H2038       H  0.66313345  0.67496424  0.99256185     0.17600
H2039       H  0.64228897  0.65406779  0.97560583     0.20100
H2040       H  0.71367417  0.70354893  0.95380196     0.13500
C2041       C  0.62166586  0.50258765  0.13097918     0.17300
C2042       C  0.61820501  0.51853920  0.13808301    -0.31700
C2043       C  0.62402581  0.53296324  0.12927090     0.21700
C2044       C  0.63292697  0.53155076  0.11411140     0.03900
C2045       C  0.63622853  0.51565325  0.10693186    -0.21400
C2046       C  0.63037116  0.50126990  0.11567488     0.13100
S2047       S  0.61649267  0.48349668  0.14006488    -0.05100
C2048       C  0.62622217  0.47382667  0.12304397    -0.08600
C2049       C  0.63282766  0.48475248  0.11094101    -0.25200
S2050       S  0.63910489  0.55045244  0.10544829    -0.02400
C2051       C  0.62941691  0.56048414  0.12229218    -0.15800
C2052       C  0.62191914  0.54958380  0.13402487    -0.13800
H2053       H  0.61142832  0.51965223  0.15001538     0.21500
H2054       H  0.64318460  0.51453700  0.09510240     0.17600
H2055       H  0.63967565  0.48076082  0.09970100     0.20100
H2056       H  0.61520460  0.55360162  0.14534093     0.13500
C2057       C  0.50310544  0.62845615  0.11455806     0.17300
C2058       C  0.51928880  0.63328572  0.10907614    -0.31700
C2059       C  0.53319486  0.62589018  0.11721479     0.21700
C2060       C  0.53115506  0.61402841  0.13013373     0.03900
C2061       C  0.51490552  0.60906762  0.13556977    -0.21400
C2062       C  0.50094341  0.61663469  0.12752887     0.13100
S2063       S  0.48476803  0.63646623  0.10650445    -0.05100
C2064       C  0.47409316  0.62389498  0.12083863    -0.08600
C2065       C  0.48413580  0.61388573  0.13118807    -0.25200
S2066       S  0.54978296  0.60686043  0.13854499    -0.02400
C2067       C  0.56032149  0.62014178  0.12458536    -0.15800
C2068       C  0.54987017  0.62943416  0.11396511    -0.13800
H2069       H  0.52097026  0.64259322  0.09904800     0.21500
H2070       H  0.51322803  0.59991497  0.14573714     0.17600
H2071       H  0.47938526  0.60523725  0.14081384     0.20100
H2072       H  0.55423167  0.63846128  0.10449281     0.13500
C2073       C  0.71989049  0.63433296  0.13262410     0.17300
C2074       C  0.73600658  0.63999276  0.13748240    -0.31700
C2075       C  0.74996944  0.63043131  0.13215885     0.21700
C2076       C  0.74801157  0.61573308  0.12261463     0.03900
C2077       C  0.73188162  0.61009324  0.11774796    -0.21400
C2078       C  0.71792371  0.61980310  0.12287270     0.13100
S2079       S  0.70137422  0.64419480  0.13776547    -0.05100
C2080       C  0.69087696  0.62866296  0.12651396    -0.08600
C2081       C  0.70126933  0.61653683  0.11921624    -0.25200
S2082       S  0.76657092  0.60603907  0.11717012    -0.02400
C2083       C  0.77691582  0.62219932  0.12754637    -0.15800
C2084       C  0.76663833  0.63423406  0.13505320    -0.13800
H2085       H  0.73760167  0.65142975  0.14493343     0.21500
H2086       H  0.73029301  0.59874962  0.11015520     0.17600
H2087       H  0.69686373  0.60580592  0.11183377     0.20100
H2088       H  0.77119049  0.64523935  0.14191423     0.13500
C2089       C  0.61200652  0.62654632  0.21794270     0.17300
C2090       C  0.60443988  0.62313329  0.23365318    -0.31700
C2091       C  0.61378605  0.62696435  0.24823123     0.21700
C2092       C  0.62988013  0.63417364  0.24730561     0.03900
C2093       C  0.63724649  0.63810841  0.23153172    -0.21400
C2094       C  0.62797042  0.63399749  0.21688119     0.13100
S2095       S  0.60335970  0.62111315  0.19892625    -0.05100
C2096       C  0.62139862  0.62896086  0.18933516    -0.08600
C2097       C  0.63334754  0.63569095  0.20037060    -0.25200
S2098       S  0.63963814  0.63657966  0.26654471    -0.02400
C2099       C  0.62183582  0.62765890  0.27566045    -0.15800
C2100       C  0.60901257  0.62339160  0.26452735    -0.13800
H2101       H  0.59207257  0.61713156  0.23447140     0.21500
H2102       H  0.64987265  0.64353280  0.23070405     0.17600
H2103       H  0.64552684  0.64088666  0.19656732     0.20100
H2104       H  0.59713194  0.61745365  0.26818249     0.13500
C2105       C  0.61471949  0.72078346  0.11803303     0.17300
C2106       C  0.60817164  0.73675141  0.11389435    -0.31700
C2107       C  0.61745626  0.75102762  0.11898720     0.21700
C2108       C  0.63266638  0.74955306  0.12777260     0.03900
C2109       C  0.63911502  0.73353818  0.13211481    -0.21400
C2110       C  0.62976661  0.71921880  0.12704620     0.13100
S2111       S  0.60550505  0.70198026  0.11256308    -0.05100
C2112       C  0.62199149  0.69180506  0.12265242    -0.08600
C2113       C  0.63396723  0.70256160  0.12984635    -0.25200
S2114       S  0.64230122  0.76851457  0.13222605    -0.02400
C2115       C  0.62556265  0.77832043  0.12220429    -0.15800
C2116       C  0.61322526  0.76755836  0.11590730    -0.13800
H2117       H  0.59641718  0.73799314  0.10687595     0.21500
H2118       H  0.65095165  0.73229000  0.13898950     0.17600
H2119       H  0.64521251  0.69842065  0.13657935     0.20100
H2120       H  0.60196815  0.77167079  0.10918469     0.13500
C2121       C  0.63568126  0.62093772  0.00075233     0.17300
C2122       C  0.64265406  0.61828622  0.01693513    -0.31700
C2123       C  0.63267788  0.62262849  0.03106623     0.21700
C2124       C  0.61650796  0.62931373  0.02915705     0.03900
C2125       C  0.60945810  0.63174586  0.01302816    -0.21400
C2126       C  0.61940387  0.62742706  0.99894008     0.13100
S2127       S  0.64593724  0.61718748  0.98196043    -0.05100
C2128       C  0.62809881  0.62458824  0.97175560    -0.08600
C2129       C  0.61491201  0.62937424  0.98228461    -0.25200
S2130       S  0.60658594  0.63421831  0.04775764    -0.02400
C2131       C  0.62430939  0.62700854  0.05831808    -0.15800
C2132       C  0.63720390  0.62116640  0.04783513    -0.13800
H2133       H  0.65534666  0.61325172  0.01844178     0.21500
H2134       H  0.59684201  0.63697383  0.01151914     0.17600
H2135       H  0.60291138  0.63444675  0.97792490     0.20100
H2136       H  0.64924305  0.61621805  0.05223835     0.13500
C2137       C  0.30712280  0.81771526  0.54013218     0.17300
C2138       C  0.31475841  0.82880251  0.55185330    -0.31700
C2139       C  0.33061565  0.83586793  0.54755614     0.21700
C2140       C  0.33862769  0.83179733  0.53241961     0.03900
C2141       C  0.33094345  0.82084559  0.52064144    -0.21400
C2142       C  0.31494832  0.81405752  0.52477197     0.13100
S2143       S  0.28806892  0.80761301  0.54303414    -0.05100
C2144       C  0.29047468  0.79863039  0.52318969    -0.08600
C2145       C  0.30536190  0.80329989  0.51490308    -0.25200
S2146       S  0.35780593  0.84155109  0.52960271    -0.02400
C2147       C  0.35469741  0.85211117  0.54858813    -0.15800
C2148       C  0.33981794  0.84739919  0.55693796    -0.13800
H2149       H  0.30855828  0.83186896  0.56375033     0.21500
H2150       H  0.33711379  0.81785169  0.50870900     0.17600
H2151       H  0.30915686  0.79874143  0.50248907     0.20100
H2152       H  0.33568226  0.85253597  0.56900663     0.13500
C2153       C  0.20760268  0.81996639  0.44060598     0.17300
C2154       C  0.19597014  0.83146517  0.43352341    -0.31700
C2155       C  0.20016831  0.83903182  0.41787749     0.21700
C2156       C  0.21514102  0.83509207  0.40952286     0.03900
C2157       C  0.22684453  0.82369329  0.41665792    -0.21400
C2158       C  0.22279934  0.81636236  0.43246281     0.13100
S2159       S  0.20473582  0.80927137  0.45932910    -0.05100
C2160       C  0.22437774  0.80006554  0.45639609    -0.08600
C2161       C  0.23258284  0.80510096  0.44156386    -0.25200
S2162       S  0.21780630  0.84553000  0.39065196    -0.02400
C2163       C  0.19892594  0.85606294  0.39436439    -0.15800
C2164       C  0.19078414  0.85093773  0.40921773    -0.13800
H2165       H  0.18419739  0.83445222  0.43997838     0.21500
H2166       H  0.23864341  0.82076289  0.41022455     0.17600
H2167       H  0.24485899  0.80046676  0.43746999     0.20100
H2168       H  0.17882513  0.85600354  0.41370921     0.13500
C2169       C  0.17553343  0.77549829  0.55935954     0.17300
C2170       C  0.15930588  0.77651709  0.56667843    -0.31700
C2171       C  0.15771127  0.78520168  0.58215909     0.21700
C2172       C  0.17163347  0.79261822  0.58999311     0.03900
C2173       C  0.18793541  0.79127259  0.58285920    -0.21400
C2174       C  0.18954498  0.78252395  0.56739413     0.13100
S2175       S  0.17997625  0.76619861  0.54026054    -0.05100
C2176       C  0.20100372  0.77158643  0.54318980    -0.08600
C2177       C  0.20424766  0.78012296  0.55827733    -0.25200
S2178       S  0.16684790  0.80333735  0.60827080    -0.02400
C2179       C  0.14594390  0.79747276  0.60549847    -0.15800
C2180       C  0.14296163  0.78781096  0.59108645    -0.13800
H2181       H  0.14836031  0.77097762  0.56046227     0.21500
H2182       H  0.19884606  0.79698952  0.58897450     0.17600
H2183       H  0.21664443  0.78461628  0.56220022     0.20100
H2184       H  0.13060497  0.78323078  0.58716843     0.13500
C2185       C  0.31688731  0.73329599  0.43602654     0.17300
C2186       C  0.33127880  0.73488358  0.42557553    -0.31700
C2187       C  0.33515561  0.72133396  0.41468836     0.21700
C2188       C  0.32515682  0.70684588  0.41422605     0.03900
C2189       C  0.31099522  0.70506186  0.42499821    -0.21400
C2190       C  0.30710189  0.71862792  0.43590287     0.13100
S2191       S  0.30955254  0.74870063  0.44938431    -0.05100
C2192       C  0.29322166  0.73520286  0.45514262    -0.08600
C2193       C  0.29360907  0.71955255  0.44702286    -0.25200
S2194       S  0.33155845  0.69226272  0.39951364    -0.02400
C2195       C  0.34781382  0.70588994  0.39368697    -0.15800
C2196       C  0.34838493  0.72068101  0.40329511    -0.13800
H2197       H  0.33893806  0.74632500  0.42568883     0.21500
H2198       H  0.30319477  0.69372276  0.42468701     0.17600
H2199       H  0.28430189  0.70956243  0.44885336     0.20100
H2200       H  0.35793048  0.73051426  0.40213156     0.13500
C2201       C  0.18022675  0.69632449  0.46176525     0.17300
C2202       C  0.16513381  0.69018485  0.45444405    -0.31700
C2203       C  0.16271548  0.67249327  0.45391497     0.21700
C2204       C  0.17477725  0.66145652  0.46042928     0.03900
C2205       C  0.18995000  0.66758017  0.46746202    -0.21400
C2206       C  0.19238813  0.68522333  0.46796147     0.13100
S2207       S  0.18531287  0.71729978  0.46436681    -0.05100
C2208       C  0.20411604  0.71103665  0.47374080    -0.08600
C2209       C  0.20616485  0.69356460  0.47468001    -0.25200
S2210       S  0.16924758  0.64051478  0.45931605    -0.02400
C2211       C  0.15047943  0.64658839  0.44995517    -0.15800
C2212       C  0.14879216  0.66398292  0.44764009    -0.13800
H2213       H  0.15560484  0.69881470  0.44959273     0.21500
H2214       H  0.19936333  0.65895441  0.47254287     0.17600
H2215       H  0.21698840  0.68728102  0.48035725     0.20100
H2216       H  0.13781715  0.67005445  0.44202515     0.13500
C2217       C  0.27402592  0.69367485  0.56803212     0.17300
C2218       C  0.27595374  0.68595594  0.58404547    -0.31700
C2219       C  0.28410046  0.67011027  0.58472972     0.21700
C2220       C  0.29025602  0.66242244  0.57013441     0.03900
C2221       C  0.28808581  0.67000905  0.55410970    -0.21400
C2222       C  0.27975624  0.68574082  0.55339742     0.13100
S2223       S  0.26473754  0.71296889  0.56449753    -0.05100
C2224       C  0.26823778  0.71017953  0.54301524    -0.08600
C2225       C  0.27633728  0.69506554  0.53899538    -0.25200
S2226       S  0.30051814  0.64365409  0.57370384    -0.02400
C2227       C  0.29618504  0.64593955  0.59506100    -0.15800
C2228       C  0.28728965  0.66060084  0.59907045    -0.13800
H2229       H  0.27135989  0.69206521  0.59547655     0.21500
H2230       H  0.29276399  0.66394238  0.54269114     0.17600
H2231       H  0.27962937  0.69114840  0.52622255     0.20100
H2232       H  0.28372371  0.66430147  0.61183215     0.13500
C2233       C  0.82181856  0.40866368  0.21361645     0.17300
C2234       C  0.80647030  0.41451552  0.22044563    -0.31700
C2235       C  0.80463306  0.43207312  0.22270450     0.21700
C2236       C  0.81749572  0.44334828  0.21836279     0.03900
C2237       C  0.83278494  0.43751624  0.21130709    -0.21400
C2238       C  0.83462115  0.41993361  0.20903243     0.13100
S2239       S  0.82671126  0.38778531  0.21050794    -0.05100
C2240       C  0.84615528  0.39429799  0.20291584    -0.08600
C2241       C  0.84861297  0.41172882  0.20267520    -0.25200
S2242       S  0.81291911  0.46411747  0.22262886    -0.02400
C2243       C  0.79342647  0.45754012  0.23026000    -0.15800
C2244       C  0.79076369  0.44013893  0.22942537    -0.13800
H2245       H  0.79646355  0.40574191  0.22403000     0.21500
H2246       H  0.84286709  0.44627556  0.20790897     0.17600
H2247       H  0.86014536  0.41797924  0.19845461     0.20100
H2248       H  0.77935033  0.43369743  0.23369311     0.13500
C2249       C  0.80562391  0.53795203  0.32036123     0.17300
C2250       C  0.81164381  0.54725641  0.33434913    -0.31700
C2251       C  0.82913810  0.54668472  0.33784381     0.21700
C2252       C  0.84012048  0.53713953  0.32793807     0.03900
C2253       C  0.83414439  0.52808385  0.31379744    -0.21400
C2254       C  0.81669375  0.52879102  0.31020553     0.13100
S2255       S  0.78481031  0.53657125  0.31424623    -0.05100
C2256       C  0.79112749  0.52381964  0.29759456    -0.08600
C2257       C  0.80848532  0.52083025  0.29701929    -0.25200
S2258       S  0.86075917  0.53747759  0.33467336    -0.02400
C2259       C  0.85457565  0.55073002  0.35093207    -0.15800
C2260       C  0.83743047  0.55471803  0.35095140    -0.13800
H2261       H  0.80305058  0.55451983  0.34223641     0.21500
H2262       H  0.84271705  0.52071131  0.30598982     0.17600
H2263       H  0.81473728  0.51304304  0.28757714     0.20100
H2264       H  0.83132899  0.56274691  0.36028499     0.13500
C2265       C  0.77085884  0.56939886  0.19119607     0.17300
C2266       C  0.76946082  0.58337462  0.18022247    -0.31700
C2267       C  0.78387067  0.58811499  0.17080285     0.21700
C2268       C  0.79904037  0.57942615  0.17225847     0.03900
C2269       C  0.80057942  0.56564262  0.18354980    -0.21400
C2270       C  0.78612067  0.56083435  0.19295335     0.13100
S2271       S  0.75455760  0.56115148  0.20298208    -0.05100
C2272       C  0.76843480  0.54605610  0.21060168    -0.08600
C2273       C  0.78485508  0.54751087  0.20423529    -0.25200
S2274       S  0.81472235  0.58690619  0.15911168    -0.02400
C2275       C  0.80065515  0.60188432  0.15136190    -0.15800
C2276       C  0.78478851  0.60109061  0.15919505    -0.13800
H2277       H  0.75754657  0.59007946  0.17883706     0.21500
H2278       H  0.81243030  0.55880217  0.18474906     0.17600
H2279       H  0.79520657  0.53905553  0.20741052     0.20100
H2280       H  0.77427838  0.60951296  0.15694637     0.13500
C2281       C  0.72222938  0.43040623  0.31479449     0.17300
C2282       C  0.72035086  0.41446280  0.32258004    -0.31700
C2283       C  0.71224736  0.41381822  0.33846825     0.21700
C2284       C  0.70603202  0.42836944  0.34616282     0.03900
C2285       C  0.70810674  0.44435086  0.33847109    -0.21400
C2286       C  0.71645149  0.44502464  0.32268773     0.13100
S2287       S  0.73160178  0.43383287  0.29548516    -0.05100
C2288       C  0.72810497  0.45525822  0.29820898    -0.08600
C2289       C  0.71991608  0.45935808  0.31329122    -0.25200
S2290       S  0.69603929  0.42479241  0.36516007    -0.02400
C2291       C  0.70071237  0.40356629  0.36290603    -0.15800
C2292       C  0.70934441  0.39954230  0.34809831    -0.13800
H2293       H  0.72502116  0.40305574  0.31652260     0.21500
H2294       H  0.70343480  0.45575725  0.34452820     0.17600
H2295       H  0.71660361  0.47212638  0.31712895     0.20100
H2296       H  0.71315126  0.38683043  0.34454499     0.13500
C2297       C  0.68953653  0.45821671  0.18963168     0.17300
C2298       C  0.67934292  0.44650945  0.18085533    -0.31700
C2299       C  0.67036690  0.45242183  0.16661317     0.21700
C2300       C  0.67173028  0.46912678  0.16120545     0.03900
C2301       C  0.68193131  0.48079548  0.16991697    -0.21400
C2302       C  0.69064518  0.47498568  0.18430853     0.13100
S2303       S  0.70116920  0.45377020  0.20742688    -0.05100
C2304       C  0.70734401  0.47480854  0.20783596    -0.08600
C2305       C  0.70077159  0.48456332  0.19471508    -0.25200
S2306       S  0.65984348  0.47385743  0.14377907    -0.02400
C2307       C  0.65235335  0.45324286  0.14397667    -0.15800
C2308       C  0.65935711  0.44321675  0.15671802    -0.13800
H2309       H  0.67827927  0.43344745  0.18506974     0.21500
H2310       H  0.68284864  0.49389832  0.16579181     0.17600
H2311       H  0.70327887  0.49797406  0.19287436     0.20100
H2312       H  0.65633290  0.42995582  0.15882893     0.13500
C2313       C  0.65785531  0.58011750  0.27955481     0.17300
C2314       C  0.66567920  0.56902460  0.26802103    -0.31700
C2315       C  0.67959692  0.55955744  0.27384190     0.21700
C2316       C  0.68531872  0.56097213  0.29044923     0.03900
C2317       C  0.67753037  0.57209434  0.30193597    -0.21400
C2318       C  0.66372550  0.58165670  0.29607869     0.13100
S2319       S  0.64079157  0.59263209  0.27506186    -0.05100
C2320       C  0.64174705  0.60039712  0.29557078    -0.08600
C2321       C  0.65452467  0.59318833  0.30532653    -0.25200
S2322       S  0.70228578  0.54841674  0.29513608    -0.02400
C2323       C  0.70191303  0.54130756  0.27443585    -0.15800
C2324       C  0.68912462  0.54830910  0.26453397    -0.13800
H2325       H  0.66115671  0.56787499  0.25507894     0.21500
H2326       H  0.68207164  0.57327702  0.31486841     0.17600
H2327       H  0.65698974  0.59625436  0.31850812     0.20100
H2328       H  0.68697783  0.54540282  0.25125808     0.13500
C2329       C  0.17157414  0.16322107  0.96830823     0.17300
C2330       C  0.18109952  0.17235271  0.98027657    -0.31700
C2331       C  0.19189476  0.18524362  0.97424319     0.21700
C2332       C  0.19320438  0.18887764  0.95703850     0.03900
C2333       C  0.18361887  0.17972192  0.94505091    -0.21400
C2334       C  0.17275646  0.16682270  0.95111590     0.13100
S2335       S  0.15794306  0.14705055  0.97310263    -0.05100
C2336       C  0.15339324  0.14498864  0.95170067    -0.08600
C2337       C  0.16241115  0.15643680  0.94154667    -0.25200
S2338       S  0.20710742  0.20502816  0.95239538    -0.02400
C2339       C  0.21112177  0.20696952  0.97388540    -0.15800
C2340       C  0.20210327  0.19553838  0.98393851    -0.13800
H2341       H  0.18013981  0.16951977  0.99372627     0.21500
H2342       H  0.18458739  0.18252650  0.93159950     0.17600
H2343       H  0.16146997  0.15717980  0.92783855     0.20100
H2344       H  0.20294310  0.19480364  0.99766451     0.13500
C2345       C  0.18328376  0.27233900  0.06130126     0.17300
C2346       C  0.16884789  0.27076031  0.07165747    -0.31700
C2347       C  0.16520703  0.28408642  0.08288482     0.21700
C2348       C  0.17539556  0.29841235  0.08371789     0.03900
C2349       C  0.18966523  0.30017717  0.07308021    -0.21400
C2350       C  0.19337567  0.28678487  0.06188378     0.13100
S2351       S  0.19035663  0.25711105  0.04761068    -0.05100
C2352       C  0.20707967  0.27033250  0.04242074    -0.08600
C2353       C  0.20696884  0.28579529  0.05091008    -0.25200
S2354       S  0.16901368  0.31281388  0.09864968    -0.02400
C2355       C  0.15248187  0.29932023  0.10402274    -0.15800
C2356       C  0.15195851  0.28464742  0.09421523    -0.13800
H2357       H  0.16097252  0.25947390  0.07122348     0.21500
H2358       H  0.19767211  0.31135870  0.07370109     0.17600
H2359       H  0.21655301  0.29558451  0.04946286     0.20100
H2360       H  0.14236181  0.27486923  0.09497577     0.13500
C2361       C  0.27469065  0.18496354  0.06624021     0.17300
C2362       C  0.27290939  0.17329955  0.07962620    -0.31700
C2363       C  0.28738346  0.16429227  0.08473620     0.21700
C2364       C  0.30294529  0.16674643  0.07688865     0.03900
C2365       C  0.30479398  0.17856764  0.06359432    -0.21400
C2366       C  0.29030324  0.18762631  0.05848626     0.13100
S2367       S  0.25855127  0.19681724  0.05798045    -0.05100
C2368       C  0.27295355  0.20565581  0.04396434    -0.08600
C2369       C  0.28941833  0.19959304  0.04575065    -0.25200
S2370       S  0.31884778  0.15443044  0.08499045    -0.02400
C2371       C  0.30438173  0.14573937  0.09911878    -0.15800
C2372       C  0.28814127  0.15248564  0.09755230    -0.13800
H2373       H  0.26073792  0.17126360  0.08574093     0.21500
H2374       H  0.31696666  0.18058102  0.05747935     0.17600
H2375       H  0.30010870  0.20356217  0.03801099     0.20100
H2376       H  0.27738047  0.14947810  0.10550677     0.13500
C2377       C  0.34693699  0.32150998  0.04161591     0.17300
C2378       C  0.34111323  0.30630136  0.03433113    -0.31700
C2379       C  0.32350781  0.30426586  0.03220980     0.21700
C2380       C  0.31223715  0.31683974  0.03712065     0.03900
C2381       C  0.31803913  0.33193093  0.04460415    -0.21400
C2382       C  0.33561385  0.33395324  0.04674870     0.13100
S2383       S  0.36780544  0.32682309  0.04445859    -0.05100
C2384       C  0.36118922  0.34594465  0.05271262    -0.08600
C2385       C  0.34372573  0.34793832  0.05331121    -0.25200
S2386       S  0.29145360  0.31226703  0.03295571    -0.02400
C2387       C  0.29789133  0.29310052  0.02459837    -0.15800
C2388       C  0.31534114  0.29054095  0.02510619    -0.13800
H2389       H  0.34993317  0.29658809  0.03027305     0.21500
H2390       H  0.30923861  0.34177092  0.04839152     0.17600
H2391       H  0.33735308  0.35927431  0.05772864     0.20100
H2392       H  0.32172252  0.27935250  0.02034027     0.13500
C2393       C  0.34130565  0.20085264  0.92680223     0.17300
C2394       C  0.33384785  0.20310232  0.94288566    -0.31700
C2395       C  0.32001049  0.21428456  0.94413332     0.21700
C2396       C  0.31372631  0.22263644  0.92993974     0.03900
C2397       C  0.32134930  0.22060966  0.91393825    -0.21400
C2398       C  0.33531341  0.20963358  0.91274552     0.13100
S2399       S  0.35806428  0.18771340  0.92250361    -0.05100
C2400       C  0.35728249  0.19450984  0.90167779    -0.08600
C2401       C  0.34450375  0.20614229  0.89833662    -0.25200
S2402       S  0.29638692  0.23501990  0.93390058    -0.02400
C2403       C  0.29779555  0.22926216  0.95501494    -0.15800
C2404       C  0.31104093  0.21820899  0.95862447    -0.13800
H2405       H  0.33860130  0.19640917  0.95393240     0.21500
H2406       H  0.31657211  0.22727053  0.90288040     0.17600
H2407       H  0.34203551  0.21170160  0.88598062     0.20100
H2408       H  0.31374965  0.21307260  0.97111231     0.13500
C2409       C  0.22756926  0.31460899  0.93257669     0.17300
C2410       C  0.22470376  0.32201361  0.91661396    -0.31700
C2411       C  0.21642978  0.33774844  0.91611009     0.21700
C2412       C  0.21115291  0.34580490  0.93084062     0.03900
C2413       C  0.21429082  0.33851533  0.94689307    -0.21400
C2414       C  0.22264965  0.32273239  0.94740255     0.13100
S2415       S  0.23678756  0.29526070  0.93568072    -0.05100
C2416       C  0.23422464  0.29804705  0.95726008    -0.08600
C2417       C  0.22662316  0.31335427  0.96167241    -0.25200
S2418       S  0.20083275  0.36462715  0.92728629    -0.02400
C2419       C  0.20399123  0.36169761  0.90577649    -0.15800
C2420       C  0.21244528  0.34681639  0.90175469    -0.13800
H2421       H  0.22861494  0.31568843  0.90505016     0.21500
H2422       H  0.21025892  0.34478052  0.95844613     0.17600
H2423       H  0.22383238  0.31723429  0.97457322     0.20100
H2424       H  0.21542230  0.34276784  0.88895510     0.13500
C2425       C  0.36922944  0.46272623  0.87940776     0.17300
C2426       C  0.36251035  0.47879125  0.88259153    -0.31700
C2427       C  0.37135633  0.49277183  0.87609265     0.21700
C2428       C  0.38630330  0.49091453  0.86687427     0.03900
C2429       C  0.39296250  0.47480076  0.86358513    -0.21400
C2430       C  0.38404434  0.46078424  0.87003665     0.13100
S2431       S  0.36039300  0.44425639  0.88635572    -0.05100
C2432       C  0.37671598  0.43375601  0.87636585    -0.08600
C2433       C  0.38839440  0.44410120  0.86817316    -0.25200
S2434       S  0.39543632  0.50955902  0.86056700    -0.02400
C2435       C  0.37885145  0.51973537  0.87042542    -0.15800
C2436       C  0.36694239  0.50936962  0.87810139    -0.13800
H2437       H  0.35093951  0.48033013  0.88988046     0.21500
H2438       H  0.40459547  0.47326221  0.85639886     0.17600
H2439       H  0.39942998  0.43966475  0.86127154     0.20100
H2440       H  0.35593271  0.51382083  0.88502395     0.13500
C2441       C  0.47207266  0.36137145  0.87796720     0.17300
C2442       C  0.48861496  0.35557686  0.88067595    -0.31700
C2443       C  0.50194181  0.36581510  0.87478317     0.21700
C2444       C  0.49897742  0.38117418  0.86658428     0.03900
C2445       C  0.48243509  0.38684901  0.86369221    -0.21400
C2446       C  0.46911913  0.37658742  0.86955733     0.13100
S2447       S  0.45416901  0.35103220  0.88451116    -0.05100
C2448       C  0.44262926  0.36731286  0.87563398    -0.08600
C2449       C  0.45221890  0.38001967  0.86808794    -0.25200
S2450       S  0.51684925  0.39211999  0.86101137    -0.02400
C2451       C  0.52828335  0.37574079  0.86978003    -0.15800
C2452       C  0.51885769  0.36254212  0.87653246    -0.13800
H2453       H  0.49099707  0.34371053  0.88722699     0.21500
H2454       H  0.48004829  0.39880612  0.85730828     0.17600
H2455       H  0.44709892  0.39123325  0.86197948     0.20100
H2456       H  0.52414967  0.35142818  0.88265542     0.13500
C2457       C  0.28422798  0.37627587  0.88784027     0.17300
C2458       C  0.26888141  0.38192757  0.89456262    -0.31700
C2459       C  0.25408978  0.37747391  0.88592627     0.21700
C2460       C  0.25441630  0.36766812  0.87127454     0.03900
C2461       C  0.26985281  0.36185249  0.86460212    -0.21400
C2462       C  0.28475003  0.36645514  0.87321887     0.13100
S2463       S  0.30346496  0.38110018  0.89620143    -0.05100
C2464       C  0.31247150  0.36981155  0.87983545    -0.08600
C2465       C  0.30105627  0.36259008  0.86856302    -0.25200
S2466       S  0.23489542  0.36413727  0.86247796    -0.02400
C2467       C  0.22658680  0.37629924  0.87860711    -0.15800
C2468       C  0.23811451  0.38235086  0.89026564    -0.13800
H2469       H  0.26850783  0.38972144  0.90588287     0.21500
H2470       H  0.27025374  0.35433466  0.85310278     0.17600
H2471       H  0.30450007  0.35528568  0.85743879     0.20100
H2472       H  0.23492160  0.39018907  0.90109487     0.13500
C2473       C  0.38116263  0.37512797  0.78090099     0.17300
C2474       C  0.38623343  0.37908267  0.76428994    -0.31700
C2475       C  0.37615584  0.37296253  0.75097640     0.21700
C2476       C  0.36155982  0.36347474  0.75402943     0.03900
C2477       C  0.35662843  0.35934384  0.77063032    -0.21400
C2478       C  0.36678675  0.36535125  0.78393507     0.13100
S2479       S  0.39152065  0.38152686  0.79881528    -0.05100
C2480       C  0.37642472  0.37073257  0.81050047    -0.08600
C2481       C  0.36405250  0.36270407  0.80090421    -0.25200
S2482       S  0.35072803  0.35766520  0.73618056    -0.02400
C2483       C  0.36624889  0.36786673  0.72460755    -0.15800
C2484       C  0.37901839  0.37539430  0.73400041    -0.13800
H2485       H  0.39750381  0.38662064  0.76185188     0.21500
H2486       H  0.34533653  0.35183966  0.77307449     0.17600
H2487       H  0.35355864  0.35540594  0.80606997     0.20100
H2488       H  0.38965854  0.38231984  0.72864404     0.13500
C2489       C  0.37216610  0.37337657  0.97131981     0.17300
C2490       C  0.36730166  0.37869022  0.98753853    -0.31700
C2491       C  0.37508905  0.37085084  0.00143623     0.21700
C2492       C  0.38713032  0.35816384  0.99936109     0.03900
C2493       C  0.39180201  0.35265359  0.98309161    -0.21400
C2494       C  0.38409728  0.36062773  0.96914172     0.13100
S2495       S  0.36463996  0.38185725  0.95292280    -0.05100
C2496       C  0.37768037  0.36809002  0.94207882    -0.08600
C2497       C  0.38728936  0.35747400  0.95231302    -0.25200
S2498       S  0.39575879  0.35091720  0.01791650    -0.02400
C2499       C  0.38305931  0.36526786  0.02832719    -0.15800
C2500       C  0.37255823  0.37485404  0.01810860    -0.13800
H2501       H  0.35808819  0.38873093  0.98924509     0.21500
H2502       H  0.40126110  0.34284972  0.98137674     0.17600
H2503       H  0.39618777  0.34808266  0.94770519     0.20100
H2504       H  0.36398028  0.38455616  0.02267223     0.13500
C2505       C  0.37281165  0.27431662  0.86642961     0.17300
C2506       C  0.36955380  0.25811767  0.85993312    -0.31700
C2507       C  0.37411270  0.24419843  0.87001531     0.21700
C2508       C  0.38151852  0.24629591  0.88589645     0.03900
C2509       C  0.38491546  0.26248114  0.89230642    -0.21400
C2510       C  0.38044291  0.27638637  0.88218290     0.13100
S2511       S  0.36787501  0.29282503  0.85635930    -0.05100
C2512       C  0.37632300  0.30341460  0.87350738    -0.08600
C2513       C  0.38263985  0.29308754  0.88625610    -0.25200
S2514       S  0.38602107  0.22786405  0.89627494    -0.02400
C2515       C  0.37813898  0.21733779  0.87888030    -0.15800
C2516       C  0.37212090  0.22747404  0.86588624    -0.13800
H2517       H  0.36369306  0.25644043  0.84760290     0.21500
H2518       H  0.39076435  0.26416178  0.90464349     0.17600
H2519       H  0.38827207  0.29756077  0.89798178     0.20100
H2520       H  0.36678894  0.22281349  0.85410273     0.13500
C2521       C  0.21187888  0.44370169  0.81416530     0.17300
C2522       C  0.20010071  0.43523624  0.82461164    -0.31700
C2523       C  0.20639003  0.42359495  0.83657296     0.21700
C2524       C  0.22363146  0.42060872  0.83810412     0.03900
C2525       C  0.23543655  0.42903076  0.82763350    -0.21400
C2526       C  0.22914870  0.44062492  0.81561260     0.13100
S2527       S  0.20675509  0.45827868  0.79893778    -0.05100
C2528       C  0.22809909  0.46028436  0.79434326    -0.08600
C2529       C  0.23854730  0.45009046  0.80424736    -0.25200
S2530       S  0.22864835  0.40623459  0.85351773    -0.02400
C2531       C  0.20723562  0.40379905  0.85792127    -0.15800
C2532       C  0.19696061  0.41406443  0.84784486    -0.13800
H2533       H  0.18661298  0.43762142  0.82345647     0.21500
H2534       H  0.24892408  0.42665510  0.82881855     0.17600
H2535       H  0.25225678  0.44965342  0.80322167     0.20100
H2536       H  0.18324559  0.41452844  0.84862084     0.13500
C2537       C  0.31167116  0.54007044  0.80865757     0.17300
C2538       C  0.31995478  0.55101040  0.82011631    -0.31700
C2539       C  0.33374594  0.54447687  0.82941551     0.21700
C2540       C  0.33907314  0.52789270  0.82722633     0.03900
C2541       C  0.33075436  0.51694620  0.81592745    -0.21400
C2542       C  0.31691316  0.52338851  0.80679245     0.13100
S2543       S  0.29468691  0.54538440  0.79614634    -0.05100
C2544       C  0.29450945  0.52482127  0.78855498    -0.08600
C2545       C  0.30709086  0.51457792  0.79540764    -0.25200
S2546       S  0.35601347  0.52237039  0.83942487    -0.02400
C2547       C  0.35589995  0.54247570  0.84821058    -0.15800
C2548       C  0.34333580  0.55291288  0.84139145    -0.13800
H2549       H  0.31579667  0.56399752  0.82175511     0.21500
H2550       H  0.33485701  0.50392624  0.81438120     0.17600
H2551       H  0.30895710  0.50133884  0.79223117     0.20100
H2552       H  0.34111284  0.56592893  0.84514932     0.13500
C2553       C  0.16443181  0.57800464  0.79797008     0.17300
C2554       C  0.17252015  0.56214385  0.79698160    -0.31700
C2555       C  0.18587676  0.56036253  0.78523101     0.21700
C2556       C  0.19123180  0.57389409  0.77523790     0.03900
C2557       C  0.18310583  0.58970574  0.77618261    -0.21400
C2558       C  0.16950563  0.59136495  0.78762742     0.13100
S2559       S  0.14766866  0.58271007  0.81102115    -0.05100
C2560       C  0.14708607  0.60271002  0.80201568    -0.08600
C2561       C  0.15964888  0.60553705  0.78990695    -0.25200
S2562       S  0.20783569  0.56927249  0.76200133    -0.02400
C2563       C  0.20730399  0.54873997  0.76963337    -0.15800
C2564       C  0.19494617  0.54583076  0.78193871    -0.13800
H2565       H  0.16842593  0.55159138  0.80484871     0.21500
H2566       H  0.18707034  0.60020507  0.76817754     0.17600
H2567       H  0.16153653  0.61734439  0.78309961     0.20100
H2568       H  0.19278538  0.53374867  0.78819793     0.13500
C2569       C  0.17417882  0.47103751  0.69410684     0.17300
C2570       C  0.15796367  0.46927800  0.68688393    -0.31700
C2571       C  0.15639594  0.45910001  0.67231535     0.21700
C2572       C  0.17024319  0.45060831  0.66556303     0.03900
C2573       C  0.18644802  0.45237958  0.67277038    -0.21400
C2574       C  0.18811970  0.46299459  0.68699649     0.13100
S2575       S  0.17890345  0.48333200  0.71138786    -0.05100
C2576       C  0.19998172  0.47810745  0.70862118    -0.08600
C2577       C  0.20296856  0.46709968  0.69518782    -0.25200
S2578       S  0.16571799  0.43890735  0.64784618    -0.02400
C2579       C  0.14507812  0.44600457  0.64913813    -0.15800
C2580       C  0.14192429  0.45655232  0.66290369    -0.13800
H2581       H  0.14711848  0.47585905  0.69216068     0.21500
H2582       H  0.19735186  0.44606854  0.66728675     0.17600
H2583       H  0.21537221  0.46242063  0.69155613     0.20100
H2584       H  0.12972196  0.46212618  0.66583342     0.13500
C2585       C  0.30450306  0.43502303  0.70724730     0.17300
C2586       C  0.31160423  0.42327909  0.69584687    -0.31700
C2587       C  0.32508908  0.41318652  0.70172049     0.21700
C2588       C  0.33124880  0.41488450  0.71811020     0.03900
C2589       C  0.32415495  0.42652732  0.72948278    -0.21400
C2590       C  0.31062073  0.43646301  0.72370491     0.13100
S2591       S  0.28803585  0.44842059  0.70277846    -0.05100
C2592       C  0.28931582  0.45584553  0.72338248    -0.08600
C2593       C  0.30194488  0.44829977  0.73302108    -0.25200
S2594       S  0.34758995  0.40168317  0.72288026    -0.02400
C2595       C  0.34604479  0.39319571  0.70272096    -0.15800
C2596       C  0.33356839  0.40081364  0.69278906    -0.13800
H2597       H  0.30677977  0.42200658  0.68302602     0.21500
H2598       H  0.32892724  0.42771766  0.74233454     0.17600
H2599       H  0.30465231  0.45131784  0.74617040     0.20100
H2600       H  0.33065055  0.39732444  0.67981178     0.13500
C2601       C  0.28010519  0.55566371  0.67347757     0.17300
C2602       C  0.28636920  0.56086343  0.65755138    -0.31700
C2603       C  0.28912662  0.57831795  0.65492246     0.21700
C2604       C  0.28569996  0.59008242  0.66755159     0.03900
C2605       C  0.27969108  0.58485755  0.68354764    -0.21400
C2606       C  0.27701818  0.56740844  0.68620670     0.13100
S2607       S  0.27548073  0.53514927  0.67908983    -0.05100
C2608       C  0.26950913  0.54242239  0.69889302    -0.08600
C2609       C  0.27108589  0.55988354  0.70084389    -0.25200
S2610       S  0.28938476  0.61070010  0.66169493    -0.02400
C2611       C  0.29572527  0.60342525  0.64206681    -0.15800
C2612       C  0.29509547  0.58590375  0.64032064    -0.13800
H2613       H  0.28887682  0.55171659  0.64760743     0.21500
H2614       H  0.27709817  0.59401427  0.69346059     0.17600
H2615       H  0.26786239  0.56674833  0.71231306     0.20100
H2616       H  0.29862799  0.57912403  0.62889270     0.13500
C2617       C  0.43653108  0.22696294  0.81970680     0.17300
C2618       C  0.42718298  0.22748397  0.83491866    -0.31700
C2619       C  0.41766417  0.21303111  0.83942443     0.21700
C2620       C  0.41738621  0.19873590  0.82922306     0.03900
C2621       C  0.42692142  0.19811533  0.81412343    -0.21400
C2622       C  0.43653102  0.21252722  0.80965377     0.13100
S2623       S  0.44869070  0.24324161  0.81187929    -0.05100
C2624       C  0.45413914  0.23038705  0.79499988    -0.08600
C2625       C  0.44671252  0.21436385  0.79553418    -0.25200
S2626       S  0.40477700  0.18270201  0.83682217    -0.02400
C2627       C  0.39963922  0.19537197  0.85396565    -0.15800
C2628       C  0.40779793  0.21109319  0.85371911    -0.13800
H2629       H  0.42726535  0.23869438  0.84286382     0.21500
H2630       H  0.42683497  0.18689739  0.80619266     0.17600
H2631       H  0.44860531  0.20459972  0.78605446     0.20100
H2632       H  0.40699366  0.22062179  0.86352627     0.13500
C2633       C  0.52232402  0.32108633  0.80873991     0.17300
C2634       C  0.52136164  0.33577706  0.81868232    -0.31700
C2635       C  0.53563642  0.34022356  0.82834019     0.21700
C2636       C  0.55027376  0.33054933  0.82813453     0.03900
C2637       C  0.55139618  0.31598917  0.81787261    -0.21400
C2638       C  0.53705386  0.31149139  0.80819771     0.13100
S2639       S  0.50605481  0.31325769  0.79676690    -0.05100
C2640       C  0.51920940  0.29691428  0.79067080    -0.08600
C2641       C  0.53539515  0.29763630  0.79769490    -0.25200
S2642       S  0.56581009  0.33788341  0.84145759    -0.02400
C2643       C  0.55234243  0.35408703  0.84756507    -0.15800
C2644       C  0.53685765  0.35382947  0.83906987    -0.13800
H2645       H  0.50985968  0.34327298  0.81910372     0.21500
H2646       H  0.56282329  0.30837823  0.81763504     0.17600
H2647       H  0.54530355  0.28839907  0.79544452     0.20100
H2648       H  0.52685098  0.36304763  0.84032990     0.13500
C2649       C  0.58814821  0.17565862  0.78728482     0.17300
C2650       C  0.58251546  0.19059039  0.77932328    -0.31700
C2651       C  0.56491504  0.19337195  0.77851597     0.21700
C2652       C  0.55343123  0.18173116  0.78516917     0.03900
C2653       C  0.55906812  0.16694965  0.79334905    -0.21400
C2654       C  0.57664587  0.16425138  0.79431423     0.13100
S2655       S  0.60891231  0.16953728  0.78899687    -0.05100
C2656       C  0.60197086  0.15152242  0.79943356    -0.08600
C2657       C  0.58453162  0.15050282  0.80151617    -0.25200
S2658       S  0.53260572  0.18710710  0.78235920    -0.02400
C2659       C  0.53939297  0.20544067  0.77242540    -0.15800
C2660       C  0.55692863  0.20709058  0.77131650    -0.13800
H2661       H  0.59144516  0.19957398  0.77387970     0.21500
H2662       H  0.55013135  0.15787405  0.79862393     0.17600
H2663       H  0.57795615  0.13994478  0.80746437     0.20100
H2664       H  0.56347546  0.21768867  0.76540513     0.13500
C2665       C  0.46140011  0.19396928  0.68066734     0.17300
C2666       C  0.45294915  0.18816983  0.66605860    -0.31700
C2667       C  0.45353926  0.17069391  0.66249901     0.21700
C2668       C  0.46224554  0.15951857  0.67296919     0.03900
C2669       C  0.47036537  0.16526560  0.68775610    -0.21400
C2670       C  0.46968399  0.18269943  0.69137358     0.13100
S2671       S  0.46289078  0.21474643  0.68683060    -0.05100
C2672       C  0.47451780  0.20813390  0.70419424    -0.08600
C2673       C  0.47701896  0.19072052  0.70501561    -0.25200
S2674       S  0.46217140  0.13894737  0.66605613    -0.02400
C2675       C  0.45016758  0.14540242  0.64892831    -0.15800
C2676       C  0.44634935  0.16259812  0.64879714    -0.13800
H2677       H  0.44638716  0.19692142  0.65771931     0.21500
H2678       H  0.47709665  0.15654437  0.69599005     0.17600
H2679       H  0.48415748  0.18431486  0.71487842     0.20100
H2680       H  0.43900596  0.16886867  0.63900136     0.13500
C2681       C  0.57068481  0.27615377  0.69180575     0.17300
C2682       C  0.58716496  0.27784905  0.68517429    -0.31700
C2683       C  0.58928282  0.28773978  0.67044726     0.21700
C2684       C  0.57560852  0.29570981  0.66273541     0.03900
C2685       C  0.55908134  0.29375273  0.66919239    -0.21400
C2686       C  0.55693974  0.28373373  0.68384232     0.13100
S2687       S  0.56557329  0.26521270  0.70989211    -0.05100
C2688       C  0.54462304  0.27058067  0.70654980    -0.08600
C2689       C  0.54189983  0.28039999  0.69212937    -0.25200
S2690       S  0.58091265  0.30766388  0.64533495    -0.02400
C2691       C  0.60166984  0.30151090  0.64822959    -0.15800
C2692       C  0.60429441  0.29094065  0.66209472    -0.13800
H2693       H  0.59788872  0.27182494  0.69130446     0.21500
H2694       H  0.54837335  0.29986302  0.66312171     0.17600
H2695       H  0.52963159  0.28511865  0.68812166     0.20100
H2696       H  0.61652430  0.28591163  0.66583025     0.13500
C2697       C  0.43497483  0.31052378  0.70797109     0.17300
C2698       C  0.42672524  0.32136962  0.69644709    -0.31700
C2699       C  0.41102699  0.32821506  0.70139048     0.21700
C2700       C  0.40373868  0.32406570  0.71690112     0.03900
C2701       C  0.41192097  0.31321181  0.72837070    -0.21400
C2702       C  0.42778448  0.30675315  0.72364577     0.13100
S2703       S  0.45427025  0.30122362  0.70464573    -0.05100
C2704       C  0.45278639  0.29252011  0.72475220    -0.08600
C2705       C  0.43798601  0.29654733  0.73337735    -0.25200
S2706       S  0.38499406  0.33395657  0.72082434    -0.02400
C2707       C  0.38719021  0.34459257  0.70172405    -0.15800
C2708       C  0.40150438  0.33986626  0.69253133    -0.13800
H2709       H  0.43245643  0.32460908  0.68433712     0.21500
H2710       H  0.40633962  0.31025369  0.74062428     0.17600
H2711       H  0.43478307  0.29210362  0.74602998     0.20100
H2712       H  0.40515129  0.34521478  0.68036170     0.13500
C2713       C  0.43923791  0.81498209  0.20676221     0.17300
C2714       C  0.43219558  0.82732821  0.19598465    -0.31700
C2715       C  0.41699277  0.83508161  0.20111750     0.21700
C2716       C  0.40889969  0.83041940  0.21607872     0.03900
C2717       C  0.41593967  0.81807276  0.22687322    -0.21400
C2718       C  0.43140838  0.81066633  0.22198131     0.13100
S2719       S  0.45782534  0.80443885  0.20302881    -0.05100
C2720       C  0.45533861  0.79444050  0.22241110    -0.08600
C2721       C  0.44066407  0.79898963  0.23109096    -0.25200
S2722       S  0.39065759  0.84144195  0.22005936    -0.02400
C2723       C  0.39444396  0.85321399  0.20185708    -0.15800
C2724       C  0.40870375  0.84801902  0.19285579    -0.13800
H2725       H  0.43847517  0.83097455  0.18426655     0.21500
H2726       H  0.40981064  0.81465064  0.23873680     0.17600
H2727       H  0.43694772  0.79397959  0.24338652     0.20100
H2728       H  0.41310398  0.85378970  0.18113237     0.13500
C2729       C  0.53675910  0.80859433  0.31159747     0.17300
C2730       C  0.54763437  0.81545162  0.32395694    -0.31700
C2731       C  0.54302414  0.83096047  0.33141017     0.21700
C2732       C  0.52839352  0.83940068  0.32654538     0.03900
C2733       C  0.51741751  0.83246537  0.31432315    -0.21400
C2734       C  0.52186257  0.81680151  0.30709766     0.13100
S2735       S  0.54020650  0.79004672  0.30091052    -0.05100
C2736       C  0.52120101  0.79314995  0.29049780    -0.08600
C2737       C  0.51276149  0.80788817  0.29515301    -0.25200
S2738       S  0.52514548  0.85809909  0.33696189    -0.02400
C2739       C  0.54320958  0.85413707  0.34877383    -0.15800
C2740       C  0.55162310  0.83938891  0.34405626    -0.13800
H2741       H  0.55914171  0.80892905  0.32767038     0.21500
H2742       H  0.50585735  0.83894288  0.31069315     0.17600
H2743       H  0.50076314  0.81200306  0.28986096     0.20100
H2744       H  0.56316890  0.83479603  0.34992371     0.13500
C2745       C  0.57046956  0.77655927  0.18563028     0.17300
C2746       C  0.58639098  0.77741153  0.17758462    -0.31700
C2747       C  0.58776893  0.78724380  0.16271403     0.21700
C2748       C  0.57397107  0.79605162  0.15627638     0.03900
C2749       C  0.55798190  0.79498639  0.16417099    -0.21400
C2750       C  0.55653710  0.78493752  0.17890207     0.13100
S2751       S  0.56623348  0.76552311  0.20392017    -0.05100
C2752       C  0.54534484  0.77185426  0.20228572    -0.08600
C2753       C  0.54203353  0.78211978  0.18829155    -0.25200
S2754       S  0.57848548  0.80793559  0.13859486    -0.02400
C2755       C  0.59908084  0.80061629  0.13958570    -0.15800
C2756       C  0.60217570  0.78970289  0.15311807    -0.13800
H2757       H  0.59724485  0.77073396  0.18271829     0.21500
H2758       H  0.54715098  0.80173023  0.15907671     0.17600
H2759       H  0.52969565  0.78732825  0.18522370     0.20100
H2760       H  0.61441087  0.78420874  0.15605824     0.13500
C2761       C  0.43663973  0.71278510  0.30840565     0.17300
C2762       C  0.42881717  0.70205627  0.32038756    -0.31700
C2763       C  0.41378746  0.70773790  0.32814577     0.21700
C2764       C  0.40662893  0.72320910  0.32388175     0.03900
C2765       C  0.41448394  0.73398461  0.31195213    -0.21400
C2766       C  0.42974607  0.72849767  0.30449686     0.13100
S2767       S  0.45506278  0.70834137  0.29776036    -0.05100
C2768       C  0.45375924  0.72805586  0.28825283    -0.08600
C2769       C  0.43959691  0.73738492  0.29306463    -0.25200
S2770       S  0.38830509  0.72766107  0.33467496    -0.02400
C2771       C  0.39068371  0.70885374  0.34579148    -0.15800
C2772       C  0.40470795  0.69945686  0.34059366    -0.13800
H2773       H  0.43433114  0.68990740  0.32369018     0.21500
H2774       H  0.40906552  0.74621555  0.30880219     0.17600
H2775       H  0.43662550  0.74997173  0.28837477     0.20100
H2776       H  0.40834278  0.68731020  0.34591900     0.13500
C2777       C  0.46498381  0.69423452  0.17644550     0.17300
C2778       C  0.45643490  0.68891652  0.16177025    -0.31700
C2779       C  0.45695792  0.67160558  0.15769549     0.21700
C2780       C  0.46576203  0.66007849  0.16767837     0.03900
C2781       C  0.47408806  0.66535315  0.18255699    -0.21400
C2782       C  0.47340283  0.68268374  0.18674321     0.13100
S2783       S  0.46621298  0.71477530  0.18320108    -0.05100
C2784       C  0.47789120  0.70778476  0.20033236    -0.08600
C2785       C  0.48068005  0.69037419  0.20063314    -0.25200
S2786       S  0.46536124  0.63974222  0.16009498    -0.02400
C2787       C  0.45302125  0.64683963  0.14343901    -0.15800
C2788       C  0.44945006  0.66405301  0.14391606    -0.13800
H2789       H  0.44974397  0.69791446  0.15380479     0.21500
H2790       H  0.48086780  0.65637040  0.19046236     0.17600
H2791       H  0.48787237  0.68376731  0.21032163     0.20100
H2792       H  0.44197944  0.67073841  0.13449748     0.13500
C2793       C  0.56817426  0.68910400  0.27312156     0.17300
C2794       C  0.58417941  0.68168322  0.27537543    -0.31700
C2795       C  0.58508730  0.66679666  0.28515002     0.21700
C2796       C  0.57072570  0.65960723  0.29245679     0.03900
C2797       C  0.55463629  0.66686613  0.28993507    -0.21400
C2798       C  0.55370614  0.68174338  0.28005240     0.13100
S2799       S  0.56457265  0.70755360  0.26227437    -0.05100
C2800       C  0.54327024  0.70528941  0.26685061    -0.08600
C2801       C  0.53930892  0.69086694  0.27628971    -0.25200
S2802       S  0.57470118  0.64176276  0.30426321    -0.02400
C2803       C  0.59584808  0.64382693  0.29892881    -0.15800
C2804       C  0.59950389  0.65777794  0.28876474    -0.13800
H2805       H  0.59546638  0.68735105  0.26986213     0.21500
H2806       H  0.54336707  0.66123970  0.29552231     0.17600
H2807       H  0.52664106  0.68745084  0.28047453     0.20100
H2808       H  0.61206968  0.66116421  0.28426678     0.13500
C2809       C  0.09550645  0.07170337  0.95394840     0.17300
C2810       C  0.08850298  0.05541155  0.95643038    -0.31700
C2811       C  0.07324396  0.05412335  0.96571029     0.21700
C2812       C  0.06522924  0.06846609  0.97197895     0.03900
C2813       C  0.07233838  0.08467673  0.96971078    -0.21400
C2814       C  0.08767385  0.08593162  0.96067318     0.13100
S2815       S  0.11381488  0.07611786  0.94294493    -0.05100
C2816       C  0.11108774  0.09727822  0.94785556    -0.08600
C2817       C  0.09659533  0.10058253  0.95732943    -0.25200
S2818       S  0.04654375  0.06442749  0.98229302    -0.02400
C2819       C  0.04961761  0.04308857  0.97854203    -0.15800
C2820       C  0.06442575  0.03945947  0.96960928    -0.13800
H2821       H  0.09466936  0.04424434  0.95135237     0.21500
H2822       H  0.06616305  0.09584984  0.97477100     0.17600
H2823       H  0.09271251  0.11308812  0.96145309     0.20100
H2824       H  0.06837750  0.02682610  0.96594635     0.13500
C2825       C  0.95954884  0.07073249  0.09050108     0.17300
C2826       C  0.96157699  0.05473735  0.08290406    -0.31700
C2827       C  0.96984338  0.05405000  0.06706918     0.21700
C2828       C  0.97559010  0.06867055  0.05902864     0.03900
C2829       C  0.97375386  0.08463445  0.06672105    -0.21400
C2830       C  0.96573798  0.08528845  0.08267223     0.13100
S2831       S  0.94966754  0.07432738  0.10954737    -0.05100
C2832       C  0.95430613  0.09560011  0.10715046    -0.08600
C2833       C  0.96290400  0.09957433  0.09224443    -0.25200
S2834       S  0.98501880  0.06517975  0.03975210    -0.02400
C2835       C  0.98161181  0.04372133  0.04269681    -0.15800
C2836       C  0.97337175  0.03968324  0.05782117    -0.13800
H2837       H  0.95695245  0.04332070  0.08908740     0.21500
H2838       H  0.97842899  0.09604735  0.06056650     0.17600
H2839       H  0.96662677  0.11228219  0.08847627     0.20100
H2840       H  0.97020081  0.02690532  0.06187064     0.13500
C2841       C  0.06354001  0.97278615  0.07117159     0.17300
C2842       C  0.07115655  0.97138821  0.08726738    -0.31700
C2843       C  0.08618260  0.96187080  0.08858329     0.21700
C2844       C  0.09315543  0.95383815  0.07455978     0.03900
C2845       C  0.08569392  0.95547404  0.05841347    -0.21400
C2846       C  0.07082703  0.96523725  0.05703620     0.13100
S2847       S  0.04513918  0.98352313  0.06693907    -0.05100
C2848       C  0.04748045  0.97820623  0.04579002    -0.08600
C2849       C  0.06178891  0.96847129  0.04241293    -0.25200
S2850       S  0.11097054  0.94221310  0.07899086    -0.02400
C2851       C  0.10931628  0.94862956  0.09986492    -0.15800
C2852       C  0.09550668  0.95907999  0.10309474    -0.13800
H2853       H  0.06559809  0.97743611  0.09829154     0.21500
H2854       H  0.09122027  0.94937201  0.04740436     0.17600
H2855       H  0.06529316  0.96385337  0.02993868     0.20100
H2856       H  0.09226164  0.96408087  0.11548455     0.13500
C2857       C  0.92038422  0.92095309  0.04852097     0.17300
C2858       C  0.93052175  0.93560563  0.04987829    -0.31700
C2859       C  0.94178834  0.93927720  0.03648370     0.21700
C2860       C  0.94275335  0.92889706  0.02230089     0.03900
C2861       C  0.93278678  0.91413612  0.02106184    -0.21400
C2862       C  0.92163240  0.91039489  0.03451127     0.13100
S2863       S  0.90605066  0.91420546  0.06341455    -0.05100
C2864       C  0.90158122  0.89693349  0.05066399    -0.08600
C2865       C  0.91108341  0.89649275  0.03576773    -0.25200
S2866       S  0.95666047  0.93586430  0.00710810    -0.02400
C2867       C  0.96150474  0.95283500  0.02006784    -0.15800
C2868       C  0.95267639  0.95294896  0.03537240    -0.13800
H2869       H  0.92966137  0.94378199  0.06089324     0.21500
H2870       H  0.93364703  0.90595099  0.01005348     0.17600
H2871       H  0.91064786  0.88636699  0.02650151     0.20100
H2872       H  0.95387738  0.96270182  0.04498140     0.13500
C2873       C  0.94458648  0.03530670  0.93394515     0.17300
C2874       C  0.93750355  0.04527099  0.92094973    -0.31700
C2875       C  0.92140321  0.04064286  0.91479953     0.21700
C2876       C  0.91261366  0.02687775  0.92145444     0.03900
C2877       C  0.91977559  0.01678944  0.93431030    -0.21400
C2878       C  0.93600284  0.02123899  0.94026545     0.13100
S2879       S  0.96388016  0.03890177  0.94328067    -0.05100
C2880       C  0.96055514  0.02102415  0.95555744    -0.08600
C2881       C  0.94519947  0.01287135  0.95251466    -0.25200
S2882       S  0.89306600  0.02367467  0.91254700    -0.02400
C2883       C  0.89705227  0.04059801  0.89909008    -0.15800
C2884       C  0.91253672  0.04857064  0.90204461    -0.13800
H2885       H  0.94426450  0.05613734  0.91582684     0.21500
H2886       H  0.91302040  0.00590796  0.93940625     0.17600
H2887       H  0.94091786  0.00152301  0.95906594     0.20100
H2888       H  0.91717583  0.05951203  0.89505770     0.13500
C2889       C  0.04202113  0.93702149  0.93624284     0.17300
C2890       C  0.05305277  0.92614212  0.92744852    -0.31700
C2891       C  0.04666232  0.91760463  0.91314146     0.21700
C2892       C  0.03015171  0.92003728  0.90763678     0.03900
C2893       C  0.01906521  0.93077898  0.91651210    -0.21400
C2894       C  0.02535490  0.93908593  0.93098726     0.13100
S2895       S  0.04729177  0.94858325  0.95386876    -0.05100
C2896       C  0.02672714  0.95607458  0.95436530    -0.08600
C2897       C  0.01649154  0.94988124  0.94139953    -0.25200
S2898       S  0.02503037  0.90886013  0.88976761    -0.02400
C2899       C  0.04505718  0.89993005  0.89017091    -0.15800
C2900       C  0.05525383  0.90617508  0.90318213    -0.13800
H2901       H  0.06602076  0.92433548  0.93163059     0.21500
H2902       H  0.00608166  0.93253404  0.91235417     0.17600
H2903       H  0.00327767  0.95320923  0.93960119     0.20100
H2904       H  0.06825160  0.90233786  0.90543980     0.13500
C2905       C  0.97984992  0.56730414  0.56134287     0.17300
C2906       C  0.98124928  0.58095763  0.57272626    -0.31700
C2907       C  0.96666172  0.58568868  0.58187365     0.21700
C2908       C  0.95139482  0.57723236  0.57974338     0.03900
C2909       C  0.94991278  0.56373771  0.56819897    -0.21400
C2910       C  0.96448336  0.55898561  0.55907380     0.13100
S2911       S  0.99616458  0.55921836  0.54950084    -0.05100
C2912       C  0.98213101  0.54449784  0.54130221    -0.08600
C2913       C  0.96567307  0.54599336  0.54750022    -0.25200
S2914       S  0.93534695  0.58471510  0.59222422    -0.02400
C2915       C  0.94923294  0.59956698  0.60059973    -0.15800
C2916       C  0.96550663  0.59854541  0.59361977    -0.13800
H2917       H  0.99323022  0.58749786  0.57450768     0.21500
H2918       H  0.93795294  0.55713460  0.56650967     0.17600
H2919       H  0.95518390  0.53782546  0.54393661     0.20100
H2920       H  0.97608768  0.60672900  0.59650231     0.13500
C2921       C  0.06027886  0.45760240  0.56071537     0.17300
C2922       C  0.06836875  0.44551982  0.57106960    -0.31700
C2923       C  0.08061298  0.45136829  0.58266628     0.21700
C2924       C  0.08464843  0.46844224  0.58382448     0.03900
C2925       C  0.07653067  0.48053143  0.57354314    -0.21400
C2926       C  0.06424853  0.47471389  0.56200908     0.13100
S2927       S  0.04510016  0.45314357  0.54583648    -0.05100
C2928       C  0.04398040  0.47458993  0.54136057    -0.08600
C2929       C  0.05492372  0.48451965  0.55098761    -0.25200
S2930       S  0.09996675  0.47291003  0.59845678    -0.02400
C2931       C  0.10093021  0.45154054  0.60347943    -0.15800
C2932       C  0.08987194  0.44164363  0.59384363    -0.13800
H2933       H  0.06525628  0.43215337  0.57012660     0.21500
H2934       H  0.07965960  0.49389485  0.57449252     0.17600
H2935       H  0.05599889  0.49819967  0.54998996     0.20100
H2936       H  0.08857473  0.42800039  0.59495964     0.13500
C2937       C  0.03378283  0.43231503  0.43679561     0.17300
C2938       C  0.04170119  0.41763422  0.43063857    -0.31700
C2939       C  0.04348353  0.41594595  0.41298163     0.21700
C2940       C  0.03744211  0.42821919  0.40186397     0.03900
C2941       C  0.02971836  0.44305531  0.40804632    -0.21400
C2942       C  0.02810912  0.44483574  0.42577048     0.13100
S2943       S  0.03030729  0.43656887  0.45779095    -0.05100
C2944       C  0.02135264  0.45561998  0.45180907    -0.08600
C2945       C  0.02106709  0.45832801  0.43432728    -0.25200
S2946       S  0.04020868  0.42332101  0.38083251    -0.02400
C2947       C  0.04981900  0.40473836  0.38719465    -0.15800
C2948       C  0.05080768  0.40255769  0.40462958    -0.13800
H2949       H  0.04624663  0.40791249  0.43925330     0.21500
H2950       H  0.02510691  0.45274126  0.39942863     0.17600
H2951       H  0.01594294  0.46953166  0.42821289     0.20100
H2952       H  0.05623919  0.39154590  0.41082613     0.13500
C2953       C  0.06263612  0.56094992  0.45747222     0.17300
C2954       C  0.07037886  0.57233196  0.44605533    -0.31700
C2955       C  0.08480697  0.58121989  0.45165556     0.21700
C2956       C  0.09136457  0.57865877  0.46777144     0.03900
C2957       C  0.08363679  0.56731140  0.47920148    -0.21400
C2958       C  0.06905428  0.55864630  0.47372025     0.13100
S2959       S  0.04486911  0.54918949  0.45325488    -0.05100
C2960       C  0.04590349  0.54128139  0.47369978    -0.08600
C2961       C  0.05946364  0.54745153  0.48312660    -0.25200
S2962       S  0.10882651  0.59067889  0.47214537    -0.02400
C2963       C  0.10715290  0.59985110  0.45222588    -0.15800
C2964       C  0.09379033  0.59327108  0.44268187    -0.13800
H2965       H  0.06525833  0.57432462  0.43344025     0.21500
H2966       H  0.08864918  0.56548329  0.49188677     0.17600
H2967       H  0.06215159  0.54395075  0.49617147     0.20100
H2968       H  0.09052822  0.59728301  0.42993491     0.13500
C2969       C  0.92901751  0.52944735  0.44104116     0.17300
C2970       C  0.91272606  0.53178939  0.43417586    -0.31700
C2971       C  0.91143722  0.54044735  0.41859118     0.21700
C2972       C  0.92571342  0.54685371  0.41041993     0.03900
C2973       C  0.94200925  0.54438422  0.41721231    -0.21400
C2974       C  0.94332942  0.53537670  0.43258959     0.13100
S2975       S  0.93329420  0.51911371  0.45968985    -0.05100
C2976       C  0.95463860  0.52236220  0.45585952    -0.08600
C2977       C  0.95808043  0.53122073  0.44094894    -0.25200
S2978       S  0.92145751  0.55731737  0.39184205    -0.02400
C2979       C  0.90029353  0.55254104  0.39479507    -0.15800
C2980       C  0.89679423  0.54356288  0.40960135    -0.13800
H2981       H  0.90155795  0.52692315  0.44061848     0.21500
H2982       H  0.95318859  0.54913566  0.41070339     0.17600
H2983       H  0.97069740  0.53447670  0.43648604     0.20100
H2984       H  0.88421958  0.53956384  0.41354924     0.13500
C2985       C  0.93159296  0.44040608  0.52947516     0.17300
C2986       C  0.91555546  0.43345997  0.53305639    -0.31700
C2987       C  0.91493735  0.41792196  0.54180951     0.21700
C2988       C  0.92962888  0.40974230  0.54700113     0.03900
C2989       C  0.94569434  0.41659610  0.54323095    -0.21400
C2990       C  0.94631571  0.43203212  0.53423757     0.13100
S2991       S  0.93499378  0.45922043  0.51914087    -0.05100
C2992       C  0.95650919  0.45564314  0.52086632    -0.08600
C2993       C  0.96067949  0.44063375  0.52916130    -0.25200
S2994       S  0.92610141  0.39099344  0.55750282    -0.02400
C2995       C  0.90466521  0.39401698  0.55443573    -0.15800
C2996       C  0.90057257  0.40891310  0.54597664    -0.13800
H2997       H  0.90405174  0.43985199  0.52911199     0.21500
H2998       H  0.95719978  0.41012448  0.54703494     0.17600
H2999       H  0.97352333  0.43636635  0.53154088     0.20100
H3000       H  0.88777546  0.41271897  0.54271851     0.13500
C3001       C  0.56548890  0.96576843  0.55957016     0.17300
C3002       C  0.57961868  0.95705014  0.56595299    -0.31700
C3003       C  0.58236907  0.95742931  0.58356043     0.21700
C3004       C  0.57163887  0.96626394  0.59436758     0.03900
C3005       C  0.55730358  0.97474118  0.58800740    -0.21400
C3006       C  0.55445114  0.97420699  0.57037757     0.13100
S3007       S  0.56027420  0.96716339  0.53854955    -0.05100
C3008       C  0.54277228  0.97891844  0.54432075    -0.08600
C3009       C  0.54126260  0.98164662  0.56170234    -0.25200
S3010       S  0.57773469  0.96585557  0.61524422    -0.02400
C3011       C  0.59475326  0.95348670  0.60930144    -0.15800
C3012       C  0.59551186  0.94985814  0.59210627    -0.13800
H3013       H  0.58817848  0.95035842  0.55753471     0.21500
H3014       H  0.54882397  0.98155382  0.59640803     0.17600
H3015       H  0.53117960  0.98885180  0.56763722     0.20100
H3016       H  0.60540764  0.94242036  0.58614542     0.13500
C3017       C  0.57222172  0.05973572  0.47244933     0.17300
C3018       C  0.58847417  0.06699904  0.47083583    -0.31700
C3019       C  0.58989386  0.08254318  0.46211937     0.21700
C3020       C  0.57579072  0.09033233  0.45504173     0.03900
C3021       C  0.55952771  0.08315412  0.45680172    -0.21400
C3022       C  0.55806007  0.06778155  0.46579683     0.13100
S3023       S  0.56780411  0.04098657  0.48257493    -0.05100
C3024       C  0.54657120  0.04420392  0.47823777    -0.08600
C3025       C  0.54329102  0.05901198  0.46919777    -0.25200
S3026       S  0.58020380  0.10889748  0.44458947    -0.02400
C3027       C  0.60119443  0.10646113  0.45022811    -0.15800
C3028       C  0.60451856  0.09179850  0.45948033    -0.13800
H3029       H  0.59951634  0.06084814  0.47622631     0.21500
H3030       H  0.54847728  0.08934324  0.45147315     0.17600
H3031       H  0.53077755  0.06310403  0.46525852     0.20100
H3032       H  0.61696918  0.08811657  0.46398476     0.13500
C3033       C  0.45547619  0.07452969  0.58918272     0.17300
C3034       C  0.45823843  0.05832463  0.58224227    -0.31700
C3035       C  0.46643118  0.05733743  0.56636546     0.21700
C3036       C  0.47149459  0.07186305  0.55772323     0.03900
C3037       C  0.46895885  0.08804342  0.56477060    -0.21400
C3038       C  0.46092148  0.08902456  0.58070248     0.13100
S3039       S  0.44549798  0.07848116  0.60812876    -0.05100
C3040       C  0.44903855  0.09983245  0.60475962    -0.08600
C3041       C  0.45738328  0.10358496  0.58965783    -0.25200
S3042       S  0.48078115  0.06801615  0.53843354    -0.02400
C3043       C  0.47812180  0.04654727  0.54207359    -0.15800
C3044       C  0.47033071  0.04276990  0.55752634    -0.13800
H3045       H  0.45413784  0.04697996  0.58890894     0.21500
H3046       H  0.47304544  0.09938949  0.55809763     0.17600
H3047       H  0.46062254  0.11629810  0.58546257     0.20100
H3048       H  0.46757698  0.03004256  0.56201548     0.13500
C3049       C  0.44221449  0.02616920  0.42653454     0.17300
C3050       C  0.43266827  0.02547152  0.41146467    -0.31700
C3051       C  0.42277924  0.03968245  0.40718292     0.21700
C3052       C  0.42251686  0.05397694  0.41739271     0.03900
C3053       C  0.43241640  0.05486586  0.43222040    -0.21400
C3054       C  0.44222509  0.04062118  0.43656551     0.13100
S3055       S  0.45418064  0.00989718  0.43448732    -0.05100
C3056       C  0.45947442  0.02272992  0.45144175    -0.08600
C3057       C  0.45227294  0.03880821  0.45076266    -0.25200
S3058       S  0.40906683  0.06948492  0.41043694    -0.02400
C3059       C  0.40344885  0.05657253  0.39359954    -0.15800
C3060       C  0.41219554  0.04122235  0.39335653    -0.13800
H3061       H  0.43264755  0.01419188  0.40361950     0.21500
H3062       H  0.43221612  0.06604570  0.44020202     0.17600
H3063       H  0.45401769  0.04852689  0.46032157     0.20100
H3064       H  0.41107753  0.03162519  0.38362444     0.13500
C3065       C  0.43074500  0.93903954  0.52315684     0.17300
C3066       C  0.41568812  0.92951364  0.52253382    -0.31700
C3067       C  0.41204524  0.91867790  0.53625329     0.21700
C3068       C  0.42296615  0.91721024  0.54995491     0.03900
C3069       C  0.43791322  0.92703057  0.55076662    -0.21400
C3070       C  0.44148792  0.93804979  0.53707545     0.13100
S3071       S  0.43754252  0.95252969  0.50751147    -0.05100
C3072       C  0.45486895  0.95739513  0.51996267    -0.08600
C3073       C  0.45530322  0.94872442  0.53539948    -0.25200
S3074       S  0.41648154  0.90263532  0.56484151    -0.02400
C3075       C  0.39894293  0.89832421  0.55235805    -0.15800
C3076       C  0.39810105  0.90830476  0.53778110    -0.13800
H3077       H  0.40723352  0.93038960  0.51171832     0.21500
H3078       H  0.44642551  0.92604212  0.56152209     0.17600
H3079       H  0.46527222  0.95002202  0.54478046     0.20100
H3080       H  0.38788067  0.90806676  0.52861962     0.13500
C3081       C  0.53851469  0.94077240  0.43473251     0.17300
C3082       C  0.54930332  0.93351227  0.42251881    -0.31700
C3083       C  0.54418383  0.91814407  0.41504149     0.21700
C3084       C  0.52911562  0.91026462  0.41970079     0.03900
C3085       C  0.51825704  0.91759057  0.43177048    -0.21400
C3086       C  0.52324236  0.93306955  0.43905167     0.13100
S3087       S  0.54245408  0.95926400  0.44541006    -0.05100
C3088       C  0.52316287  0.95677572  0.45555918    -0.08600
C3089       C  0.51429270  0.94228465  0.45083833    -0.25200
S3090       S  0.52520270  0.89170426  0.40926838    -0.02400
C3091       C  0.54366661  0.89490600  0.39779029    -0.15800
C3092       C  0.55265032  0.90932678  0.40257798    -0.13800
H3093       H  0.56112245  0.93962103  0.41893828     0.21500
H3094       H  0.50637524  0.91154125  0.43524716     0.17600
H3095       H  0.50202456  0.93859475  0.45590719     0.20100
H3096       H  0.56451097  0.91341081  0.39688001     0.13500
C3097       C  0.57451139  0.55945168  0.97311935     0.17300
C3098       C  0.59060866  0.56701795  0.97139435    -0.31700
C3099       C  0.59170710  0.58241104  0.96237422     0.21700
C3100       C  0.57744594  0.58977766  0.95515579     0.03900
C3101       C  0.56132852  0.58236038  0.95712131    -0.21400
C3102       C  0.56019014  0.56711828  0.96635782     0.13100
S3103       S  0.57050728  0.54064593  0.98330630    -0.05100
C3104       C  0.54924438  0.54332365  0.97878158    -0.08600
C3105       C  0.54563476  0.55802605  0.96972111    -0.25200
S3106       S  0.58151886  0.60798984  0.94399485    -0.02400
C3107       C  0.60258372  0.60596135  0.94947693    -0.15800
C3108       C  0.60617652  0.59176599  0.95931753    -0.13800
H3109       H  0.60178804  0.56114053  0.97680359     0.21500
H3110       H  0.55016304  0.58819067  0.95163190     0.17600
H3111       H  0.53305403  0.56176237  0.96564330     0.20100
H3112       H  0.61873554  0.58832795  0.96370919     0.13500
C3113       C  0.47690032  0.56037777  0.06768057     0.17300
C3114       C  0.47461706  0.56761836  0.08377643    -0.31700
C3115       C  0.46538459  0.58277911  0.08475194     0.21700
C3116       C  0.45860341  0.59037409  0.07036604     0.03900
C3117       C  0.46119038  0.58330414  0.05419711    -0.21400
C3118       C  0.47053584  0.56816742  0.05320020     0.13100
S3119       S  0.48711006  0.54167271  0.06396806    -0.05100
C3120       C  0.48306706  0.54445257  0.04260834    -0.08600
C3121       C  0.47422746  0.55917533  0.03870777    -0.25200
S3122       S  0.44710614  0.60831604  0.07443061    -0.02400
C3123       C  0.45181942  0.60571370  0.09566803    -0.15800
C3124       C  0.46166343  0.59160528  0.09927240    -0.13800
H3125       H  0.47966268  0.56159321  0.09507999     0.21500
H3126       H  0.45599501  0.58923780  0.04291776     0.17600
H3127       H  0.47042372  0.56291051  0.02601443     0.20100
H3128       H  0.46564528  0.58784832  0.11190218     0.13500
C3129       C  0.56283213  0.47280014  0.06932501     0.17300
C3130       C  0.57031312  0.47140631  0.08542145    -0.31700
C3131       C  0.58563300  0.46246714  0.08664171     0.21700
C3132       C  0.59304791  0.45499729  0.07251738     0.03900
C3133       C  0.58569537  0.45661265  0.05636613    -0.21400
C3134       C  0.57049864  0.46578428  0.05509956     0.13100
S3135       S  0.54417563  0.48297036  0.06524977    -0.05100
C3136       C  0.54688670  0.47806768  0.04408383    -0.08600
C3137       C  0.56148875  0.46893291  0.04051204    -0.25200
S3138       S  0.61129588  0.44414085  0.07679610    -0.02400
C3139       C  0.60915527  0.45015561  0.09771744    -0.15800
C3140       C  0.59491421  0.45985520  0.10113584    -0.13800
H3141       H  0.56444986  0.47704853  0.09650931     0.21500
H3142       H  0.59155657  0.45096467  0.04528176     0.17600
H3143       H  0.56523836  0.46474025  0.02795459     0.20100
H3144       H  0.59142805  0.46453693  0.11359140     0.13500
C3145       C  0.44079597  0.43904357  0.04032323     0.17300
C3146       C  0.43065061  0.43061995  0.05243662    -0.31700
C3147       C  0.42120240  0.41645938  0.04702305     0.21700
C3148       C  0.42188359  0.41097285  0.03034106     0.03900
C3149       C  0.43185923  0.41946884  0.01819820    -0.21400
C3150       C  0.44127015  0.43361880  0.02357405     0.13100
S3151       S  0.45357418  0.45615537  0.04437052    -0.05100
C3152       C  0.45956021  0.45608548  0.02323800    -0.08600
C3153       C  0.45190236  0.44339624  0.01369291    -0.25200
S3154       S  0.40988615  0.39340408  0.02639576    -0.02400
C3155       C  0.40344950  0.39333252  0.04742733    -0.15800
C3156       C  0.41067160  0.40647017  0.05685308    -0.13800
H3157       H  0.43024005  0.43484118  0.06552129     0.21500
H3158       H  0.43235501  0.41515566  0.00514516     0.17600
H3159       H  0.45418642  0.44126920  0.00028609     0.20100
H3160       H  0.40843020  0.40867187  0.07023809     0.13500
C3161       C  0.44329490  0.53683075  0.93476586     0.17300
C3162       C  0.43510556  0.54830866  0.92380422    -0.31700
C3163       C  0.42108236  0.54234495  0.91451185     0.21700
C3164       C  0.41541089  0.52577468  0.91626283     0.03900
C3165       C  0.42362653  0.51427885  0.92711729    -0.21400
C3166       C  0.43774470  0.52016320  0.93623491     0.13100
S3167       S  0.46041766  0.54156302  0.94722750    -0.05100
C3168       C  0.46023688  0.52081069  0.95436240    -0.08600
C3169       C  0.44747763  0.51087214  0.94734778    -0.25200
S3170       S  0.39823901  0.52100083  0.90406503    -0.02400
C3171       C  0.39887725  0.54136840  0.89579368    -0.15800
C3172       C  0.41162200  0.55137572  0.90288340    -0.13800
H3173       H  0.43951646  0.56128589  0.92252665     0.21500
H3174       H  0.41924161  0.50128435  0.92833889     0.17600
H3175       H  0.44530770  0.49761495  0.95036703     0.20100
H3176       H  0.41409824  0.56447525  0.89946242     0.13500
C3177       C  0.54286187  0.44088487  0.93415071     0.17300
C3178       C  0.55438447  0.43371381  0.92257279    -0.31700
C3179       C  0.54908100  0.41933935  0.91344602     0.21700
C3180       C  0.53309919  0.41236057  0.91589921     0.03900
C3181       C  0.52153354  0.41958427  0.92735837    -0.21400
C3182       C  0.52675275  0.43405065  0.93633605     0.13100
S3183       S  0.54688453  0.45821455  0.94655218    -0.05100
C3184       C  0.52655160  0.45641895  0.95459418    -0.08600
C3185       C  0.51728216  0.44298099  0.94794302    -0.25200
S3186       S  0.52915535  0.39486431  0.90384150    -0.02400
C3187       C  0.54905693  0.39714496  0.89477524    -0.15800
C3188       C  0.55830858  0.41065322  0.90142298    -0.13800
H3189       H  0.56691444  0.43912256  0.92073916     0.21500
H3190       H  0.50899169  0.41418605  0.92915711     0.17600
H3191       H  0.50436852  0.43981456  0.95152919     0.20100
H3192       H  0.57103289  0.41413052  0.89748156     0.13500
loop_ 
_geom_bond_atom_site_label_1 
_geom_bond_atom_site_label_2 
_geom_bond_distance 
_geom_bond_site_symmetry_2 
_ccdc_geom_bond_type 
Zn1           O5   1.961   1_554  S
Zn1           O6   2.008       .  S
Zn1          O10   2.011       .  S
Zn1          O17   2.027       .  S
Zn2           O5   1.973       .  S
Zn2           O7   2.038       .  S
Zn2           O9   2.042   1_556  S
Zn2          O13   2.020       .  S
Zn3           O5   1.968       .  S
Zn3           O8   2.027   1_556  S
Zn3          O11   2.026       .  S
Zn3          O14   2.020       .  S
Zn4           O5   1.974       .  S
Zn4          O12   2.043       .  S
Zn4          O15   2.044       .  S
Zn4          O16   2.043   1_556  S
O6           C18   1.272       .  A
O7           C19   1.276       .  A
O8           C20   1.274       .  A
O9           C18   1.276       .  A
O10          C20   1.272       .  A
O11          C19   1.274       .  A
O12          C21   1.277       .  A
O13          C22   1.274       .  A
O14          C21   1.274       .  A
O15          C22   1.277       .  A
O16          C23   1.277       .  A
O17          C23   1.274       .  A
C18        C3120   1.474       .  S
C19        C3104   1.478       .  S
C20        C3136   1.471       .  S
C21        C3184   1.478       .  S
C22        C3168   1.479       .  S
C23        C3152   1.481       .  S
Zn24         O28   1.969   1_565  S
Zn24         O29   2.034       .  S
Zn24         O33   2.033   1_565  S
Zn24         O40   2.034       .  S
Zn25         O28   1.970   1_565  S
Zn25         O30   2.026   1_565  S
Zn25         O32   2.032       .  S
Zn25         O36   2.026       .  S
Zn26         O28   1.978       .  S
Zn26         O31   2.046       .  S
Zn26         O34   2.048       .  S
Zn26         O37   2.046       .  S
Zn27         O28   1.982   1_565  S
Zn27         O35   2.045   1_565  S
Zn27         O38   2.035       .  S
Zn27         O39   2.049       .  S
O29          C41   1.275       .  A
O30          C42   1.274       .  A
O31          C43   1.277       .  A
O32          C41   1.274       .  A
O33          C43   1.275       .  A
O34          C42   1.277       .  A
O35          C44   1.277       .  A
O36          C45   1.275       .  A
O37          C44   1.277       .  A
O38          C45   1.275       .  A
O39          C46   1.277       .  A
O40          C46   1.276       .  A
C41        C3088   1.478       .  S
C42        C3024   1.481       .  S
C43        C3056   1.482       .  S
C44        C3043   1.485       .  S
C45        C3008   1.477       .  S
C46        C3072   1.481       .  S
Zn47         O51   1.973       .  S
Zn47         O52   2.030       .  S
Zn47         O56   2.038       .  S
Zn47         O63   2.035       .  S
Zn48         O51   1.975       .  S
Zn48         O53   2.041       .  S
Zn48         O55   2.028       .  S
Zn48         O59   2.039   1_455  S
Zn49         O51   1.971       .  S
Zn49         O54   2.027       .  S
Zn49         O57   2.034       .  S
Zn49         O60   2.035   1_455  S
Zn50         O51   1.969   1_655  S
Zn50         O58   2.024       .  S
Zn50         O61   2.028       .  S
Zn50         O62   2.035       .  S
O52          C64   1.275       .  A
O53          C65   1.276       .  A
O54          C66   1.274       .  A
O55          C64   1.275       .  A
O56          C66   1.276       .  A
O57          C65   1.276       .  A
O58          C67   1.274       .  A
O59          C68   1.275       .  A
O60          C67   1.275       .  A
O61          C68   1.274       .  A
O62          C69   1.276       .  A
O63          C69   1.276   1_455  A
C64        C2960   1.477       .  S
C65        C2944   1.481       .  S
C66        C2928   1.481       .  S
C67        C2992   1.477       .  S
C68        C2976   1.479       .  S
C69        C2912   1.481       .  S
Zn70         O74   1.982       .  S
Zn70         O75   2.056   1_565  S
Zn70         O79   2.039       .  S
Zn70         O86   2.047   1_556  S
Zn71         O74   1.970   1_545  S
Zn71         O76   2.043   1_455  S
Zn71         O78   2.023       .  S
Zn71         O82   2.036   1_456  S
Zn72         O74   1.966   1_655  S
Zn72         O77   2.026   1_655  S
Zn72         O80   2.029       .  S
Zn72         O83   2.019       .  S
Zn73         O74   1.978   1_654  S
Zn73         O81   2.049       .  S
Zn73         O84   2.036   1_565  S
Zn73         O85   2.044   1_655  S
O75          C87   1.277       .  A
O76          C88   1.276       .  A
O77          C89   1.274       .  A
O78          C87   1.274       .  A
O79          C89   1.276       .  A
O80          C88   1.274   1_565  A
O81          C90   1.277       .  A
O82          C91   1.275       .  A
O83          C90   1.273   1_556  A
O84          C91   1.275       .  A
O85          C92   1.277       .  A
O86          C92   1.278       .  A
C87        C2819   1.481       .  S
C88        C2880   1.478       .  S
C89        C2896   1.480       .  S
C90        C2867   1.479       .  S
C91        C2835   1.480       .  S
C92        C2848   1.483       .  S
Zn93         O97   1.977       .  S
Zn93         O98   2.044       .  S
Zn93        O102   2.036       .  S
Zn93        O109   2.037       .  S
Zn94         O97   1.968       .  S
Zn94         O99   2.027       .  S
Zn94        O101   2.032       .  S
Zn94        O105   2.036       .  S
Zn95         O97   1.981       .  S
Zn95        O100   2.038       .  S
Zn95        O103   2.038       .  S
Zn95        O106   2.037       .  S
Zn96         O97   1.971       .  S
Zn96        O104   2.025       .  S
Zn96        O107   2.040       .  S
Zn96        O108   2.031       .  S
O98         C110   1.278       .  A
O99         C111   1.273       .  A
O100        C112   1.276       .  A
O101        C110   1.276       .  A
O102        C112   1.276       .  A
O103        C111   1.274       .  A
O104        C113   1.275       .  A
O105        C114   1.275       .  A
O106        C113   1.276       .  A
O107        C114   1.275       .  A
O108        C115   1.274       .  A
O109        C115   1.275       .  A
C110       C2736   1.478       .  S
C111       C2800   1.478       .  S
C112       C2768   1.480       .  S
C113       C2784   1.475       .  S
C114       C2752   1.480       .  S
C115       C2720   1.479       .  S
Zn116       O120   1.962       .  S
Zn116       O121   2.034       .  S
Zn116       O125   2.026       .  S
Zn116       O132   2.032       .  S
Zn117       O120   1.971       .  S
Zn117       O122   2.040       .  S
Zn117       O124   2.014       .  S
Zn117       O128   2.030       .  S
Zn118       O120   1.969       .  S
Zn118       O123   2.037       .  S
Zn118       O126   2.022       .  S
Zn118       O129   2.019       .  S
Zn119       O120   1.971       .  S
Zn119       O127   2.035       .  S
Zn119       O130   2.036       .  S
Zn119       O131   2.043       .  S
O121        C133   1.276       .  A
O122        C134   1.276       .  A
O123        C135   1.276       .  A
O124        C133   1.272       .  A
O125        C135   1.275       .  A
O126        C134   1.273       .  A
O127        C136   1.275       .  A
O128        C137   1.275       .  A
O129        C136   1.274       .  A
O130        C137   1.276       .  A
O131        C138   1.276       .  A
O132        C138   1.275       .  A
C133       C2704   1.474       .  S
C134       C2688   1.477       .  S
C135       C2640   1.478       .  S
C136       C2659   1.476       .  S
C137       C2672   1.477       .  S
C138       C2624   1.481       .  S
Zn139       O143   1.974       .  S
Zn139       O144   2.029       .  S
Zn139       O148   2.033       .  S
Zn139       O155   2.043       .  S
Zn140       O143   1.973       .  S
Zn140       O145   2.034       .  S
Zn140       O147   2.045       .  S
Zn140       O151   2.035       .  S
Zn141       O143   1.972       .  S
Zn141       O146   2.020       .  S
Zn141       O149   2.039       .  S
Zn141       O152   2.033       .  S
Zn142       O143   1.968       .  S
Zn142       O150   2.036       .  S
Zn142       O153   2.032       .  S
Zn142       O154   2.016       .  S
O144        C156   1.276       .  A
O145        C157   1.276       .  A
O146        C158   1.273       .  A
O147        C156   1.276       .  A
O148        C158   1.276       .  A
O149        C157   1.276       .  A
O150        C159   1.275       .  A
O151        C160   1.275       .  A
O152        C159   1.275       .  A
O153        C160   1.274       .  A
O154        C161   1.273       .  A
O155        C161   1.276       .  A
C156       C2544   1.481       .  S
C157       C2608   1.481       .  S
C158       C2592   1.477       .  S
C159       C2576   1.478       .  S
C160       C2563   1.478       .  S
C161       C2528   1.479       .  S
Zn162       O166   1.951       .  S
Zn162       O167   1.991       .  S
Zn162       O171   2.008       .  S
Zn162       O178   2.012       .  S
Zn163       O166   1.956       .  S
Zn163       O168   2.025       .  S
Zn163       O170   2.007       .  S
Zn163       O174   2.002       .  S
Zn164       O166   1.930       .  S
Zn164       O169   1.982       .  S
Zn164       O172   1.986       .  S
Zn164       O175   1.969       .  S
Zn165       O166   1.957       .  S
Zn165       O173   2.020       .  S
Zn165       O176   2.001       .  S
Zn165       O177   2.005       .  S
O167        C179   1.272       .  A
O168        C180   1.273       .  A
O169        C181   1.269       .  A
O170        C179   1.272       .  A
O171        C181   1.272       .  A
O172        C180   1.269       .  A
O173        C182   1.272       .  A
O174        C183   1.273       .  A
O175        C182   1.268       .  A
O176        C183   1.272       .  A
O177        C184   1.272       .  A
O178        C184   1.272       .  A
C179       C2448   1.462       .  S
C180       C2496   1.467       .  S
C181       C2432   1.461       .  S
C182       C2464   1.461       .  S
C183       C2512   1.462       .  S
C184       C2480   1.468       .  S
N185        C189   1.354       .  A
N185        C186   1.359       .  A
N185       C2467   1.426       .  S
C186       C2531   1.499       .  S
C186        C187   1.389       .  A
C187        C188   1.384       .  A
C187        H190   1.082       .  S
C188        C189   1.380       .  A
C188        H191   1.082       .  S
C189       C2419   1.485       .  S
N192        C196   1.359       .  A
N192        C193   1.357       .  A
N192       C2435   1.424       .  S
C193       C3171   1.498       .  S
C193        C194   1.385       .  A
C194        C195   1.386       .  A
C194        H197   1.082       .  S
C195        C196   1.386       .  A
C195        H198   1.082       .  S
C196       C2547   1.501       .  S
N199        C203   1.358       .  A
N199        C200   1.357       .  A
N199       C2451   1.425       .  S
C200       C3187   1.495       .  S
C200        C201   1.385       .  A
C201        C202   1.384       .  A
C201        H204   1.082       .  S
C202        C203   1.385       .  A
C202        H205   1.082       .  S
C203       C2643   1.496       .  S
N206        C210   1.356       .  A
N206        C207   1.357       .  A
N206       C2483   1.428       .  S
C207       C2595   1.493       .  S
C207        C208   1.386       .  A
C208        C209   1.384       .  A
C208        H211   1.082       .  S
C209        C210   1.384       .  A
C209        H212   1.082       .  S
C210       C2707   1.490       .  S
N213        C217   1.357       .  A
N213        C214   1.352       .  A
N213       C2515   1.426       .  S
C214       C2400   1.482       .  S
C214        C215   1.381       .  A
C215        C216   1.385       .  A
C215        H218   1.082       .  S
C216        C217   1.387       .  A
C216        H219   1.082       .  S
C217       C2627   1.494       .  S
N220        C224   1.351       .  A
N220        C221   1.360       .  A
N220       C2499   1.428       .  S
C221       C3155   1.501       .  S
C221        C222   1.390       .  A
C222        C223   1.384       .  A
C222        H225   1.081       .  S
C223        C224   1.379       .  A
C223        H226   1.082       .  S
C224       C2384   1.478       .  S
Zn227       O231   1.963   1_554  S
Zn227       O232   2.026       .  S
Zn227       O236   2.025       .  S
Zn227       O243   2.026   1_554  S
Zn228       O231   1.977   1_554  S
Zn228       O233   2.025       .  S
Zn228       O235   2.039       .  S
Zn228       O239   2.046   1_554  S
Zn229       O231   1.983   1_554  S
Zn229       O234   2.038       .  S
Zn229       O237   2.046       .  S
Zn229       O240   2.042   1_554  S
Zn230       O231   1.968       .  S
Zn230       O238   2.027       .  S
Zn230       O241   2.029       .  S
Zn230       O242   2.047       .  S
O232        C244   1.274       .  A
O233        C245   1.275       .  A
O234        C246   1.276       .  A
O235        C244   1.275       .  A
O236        C246   1.274       .  A
O237        C245   1.277       .  A
O238        C247   1.274       .  A
O239        C248   1.276       .  A
O240        C247   1.276       .  A
O241        C248   1.275       .  A
O242        C249   1.276       .  A
O243        C249   1.275       .  A
C244       C2352   1.479       .  S
C245       C2387   1.480       .  S
C246       C2368   1.479       .  S
C247       C2403   1.478       .  S
C248       C2416   1.481       .  S
C249       C2339   1.483       .  S
Zn250       O254   1.965       .  S
Zn250       O255   2.035       .  S
Zn250       O259   2.011       .  S
Zn250       O266   2.034       .  S
Zn251       O254   1.967       .  S
Zn251       O256   2.028       .  S
Zn251       O258   2.023       .  S
Zn251       O262   2.020       .  S
Zn252       O254   1.968       .  S
Zn252       O257   2.033       .  S
Zn252       O260   2.025       .  S
Zn252       O263   2.025       .  S
Zn253       O254   1.971       .  S
Zn253       O261   2.036       .  S
Zn253       O264   2.026       .  S
Zn253       O265   2.040       .  S
O255        C267   1.275       .  A
O256        C268   1.274       .  A
O257        C269   1.275       .  A
O258        C267   1.274       .  A
O259        C269   1.273       .  A
O260        C268   1.275       .  A
O261        C270   1.275       .  A
O262        C271   1.274       .  A
O263        C270   1.275       .  A
O264        C271   1.274       .  A
O265        C272   1.276       .  A
O266        C272   1.275       .  A
C267       C2288   1.476       .  S
C268       C2304   1.476       .  S
C269       C2323   1.474       .  S
C270       C2272   1.478       .  S
C271       C2243   1.476       .  S
C272       C2256   1.479       .  S
Zn273       O277   1.974       .  S
Zn273       O278   2.044       .  S
Zn273       O282   2.052       .  S
Zn273       O289   2.026       .  S
Zn274       O277   1.973       .  S
Zn274       O279   2.029       .  S
Zn274       O281   2.030       .  S
Zn274       O285   2.030       .  S
Zn275       O277   1.967       .  S
Zn275       O280   2.024       .  S
Zn275       O283   2.030       .  S
Zn275       O286   2.026       .  S
Zn276       O277   1.980       .  S
Zn276       O284   2.045       .  S
Zn276       O287   2.045       .  S
Zn276       O288   2.049       .  S
O278        C290   1.277       .  A
O279        C291   1.274       .  A
O280        C292   1.274       .  A
O281        C290   1.275       .  A
O282        C292   1.278       .  A
O283        C291   1.274       .  A
O284        C293   1.277       .  A
O285        C294   1.275       .  A
O286        C293   1.274       .  A
O287        C294   1.277       .  A
O288        C295   1.277       .  A
O289        C295   1.274       .  A
C290       C2144   1.479       .  S
C291       C2176   1.477       .  S
C292       C2160   1.479       .  S
C293       C2208   1.480       .  S
C294       C2224   1.481       .  S
C295       C2192   1.480       .  S
Zn296       O300   1.949       .  S
Zn296       O301   2.014       .  S
Zn296       O305   2.008       .  S
Zn296       O312   2.007       .  S
Zn297       O300   1.962       .  S
Zn297       O302   2.020       .  S
Zn297       O304   2.014       .  S
Zn297       O308   1.998       .  S
Zn298       O300   1.954       .  S
Zn298       O303   2.003       .  S
Zn298       O306   1.996       .  S
Zn298       O309   2.021       .  S
Zn299       O300   1.956       .  S
Zn299       O307   2.017       .  S
Zn299       O310   2.013       .  S
Zn299       O311   2.023       .  S
O301        C313   1.273       .  A
O302        C314   1.273       .  A
O303        C315   1.270       .  A
O304        C313   1.273       .  A
O305        C315   1.273       .  A
O306        C314   1.271       .  A
O307        C316   1.273       .  A
O308        C317   1.271       .  A
O309        C316   1.274       .  A
O310        C317   1.274       .  A
O311        C318   1.274       .  A
O312        C318   1.272       .  A
C313       C2112   1.470       .  S
C314       C2096   1.465       .  S
C315       C2067   1.467       .  S
C316       C2051   1.473       .  S
C317       C2080   1.465       .  S
C318       C2131   1.470       .  S
N319        C323   1.355       .  A
N319        C320   1.360       .  A
N319       C2128   1.431       .  S
C320       C2032   1.493       .  S
C320        C321   1.386       .  A
C321        C322   1.380       .  A
C321        H324   1.082       .  S
C322        C323   1.380       .  A
C322        H325   1.082       .  S
C323       C3107   1.480       .  S
N326        C330   1.357       .  A
N326        C327   1.353       .  A
N326       C2048   1.433       .  S
C327       C3139   1.474       .  S
C327        C328   1.381       .  A
C328        C329   1.380       .  A
C328        H331   1.082       .  S
C329        C330   1.386       .  A
C329        H332   1.082       .  S
C330       C2307   1.486       .  S
N333        C337   1.359       .  A
N333        C334   1.361       .  A
N333       C2083   1.425       .  S
C334       C2016   1.504       .  S
C334        C335   1.386       .  A
C335        C336   1.383       .  A
C335        H338   1.081       .  S
C336        C337   1.384       .  A
C336        H339   1.082       .  S
C337       C2275   1.500       .  S
N340        C344   1.354       .  A
N340        C341   1.353       .  A
N340       C2064   1.429       .  S
C341       C3123   1.478       .  S
C341        C342   1.382       .  A
C342        C343   1.381       .  A
C342        H345   1.082       .  S
C343        C344   1.384       .  A
C343        H346   1.082       .  S
C344       C2787   1.481       .  S
N347        C351   1.356       .  A
N347        C348   1.360       .  A
N347       C2115   1.430       .  S
C348       C2000   1.492       .  S
C348        C349   1.386       .  A
C349        C350   1.380       .  A
C349        H352   1.082       .  S
C350        C351   1.381       .  A
C350        H353   1.082       .  S
C351       C2755   1.484       .  S
N354        C358   1.355       .  A
N354        C355   1.353       .  A
N354       C2099   1.429       .  S
C355       C2803   1.480       .  S
C355        C356   1.382       .  A
C356        C357   1.384       .  A
C356        H359   1.082       .  S
C357        C358   1.386       .  A
C357        H360   1.082       .  S
C358       C2320   1.488       .  S
Zn361       O365   1.962       .  S
Zn361       O366   2.033       .  S
Zn361       O370   2.026       .  S
Zn361       O377   2.007       .  S
Zn362       O365   1.973       .  S
Zn362       O367   2.028   1_554  S
Zn362       O369   2.039       .  S
Zn362       O373   2.038       .  S
Zn363       O365   1.982   1_556  S
Zn363       O368   2.039       .  S
Zn363       O371   2.033       .  S
Zn363       O374   2.043       .  S
Zn364       O365   1.974       .  S
Zn364       O372   2.026   1_554  S
Zn364       O375   2.041       .  S
Zn364       O376   2.045       .  S
O366        C378   1.276       .  A
O367        C379   1.276       .  A
O368        C380   1.274       .  A
O369        C378   1.275       .  A
O370        C380   1.273   1_554  A
O371        C379   1.276       .  A
O372        C381   1.275       .  A
O373        C382   1.275       .  A
O374        C381   1.276       .  A
O375        C382   1.275       .  A
O376        C383   1.277       .  A
O377        C383   1.273       .  A
C378       C2019   1.482       .  S
C379       C1968   1.474       .  S
C380       C2035   1.481       .  S
C381       C1984   1.478       .  S
C382       C1952   1.483       .  S
C383       C2003   1.476       .  S
Zn384       O388   1.948       .  S
Zn384       O389   1.991       .  S
Zn384       O393   2.008       .  S
Zn384       O400   2.006       .  S
Zn385       O388   1.958       .  S
Zn385       O390   1.993       .  S
Zn385       O392   2.014       .  S
Zn385       O396   2.016       .  S
Zn386       O388   1.959       .  S
Zn386       O391   2.023       .  S
Zn386       O394   2.014       .  S
Zn386       O397   2.021       .  S
Zn387       O388   1.949       .  S
Zn387       O395   2.001       .  S
Zn387       O398   2.004       .  S
Zn387       O399   2.001       .  S
O389        C401   1.270       .  A
O390        C402   1.271       .  A
O391        C403   1.273       .  A
O392        C401   1.272       .  A
O393        C403   1.272       .  A
O394        C402   1.274       .  A
O395        C404   1.272       .  A
O396        C405   1.273       .  A
O397        C404   1.274       .  A
O398        C405   1.271       .  A
O399        C406   1.272       .  A
O400        C406   1.272       .  A
C401       C1904   1.466       .  S
C402       C1920   1.465       .  S
C403       C1859   1.472       .  S
C404       C1888   1.469       .  S
C405       C1939   1.468       .  S
C406       C1872   1.465       .  S
N407        C411   1.362       .  A
N407        C408   1.362       .  A
N407       C1891   1.426       .  S
C408       C1840   1.500       .  S
C408        C409   1.383       .  A
C409        C410   1.378       .  A
C409        H412   1.082       .  S
C410        C411   1.385       .  A
C410        H413   1.082       .  S
C411       C2915   1.502       .  S
N414        C418   1.358       .  A
N414        C415   1.351       .  A
N414       C1923   1.427       .  S
C415       C2179   1.480       .  S
C415        C416   1.380       .  A
C416        C417   1.383       .  A
C416        H419   1.082       .  S
C417        C418   1.388       .  A
C417        H420   1.082       .  S
C418       C1827   1.495       .  S
N421        C425   1.360       .  A
N421        C422   1.353       .  A
N421       C1856   1.431       .  S
C422       C2211   1.478       .  S
C422        C423   1.380       .  A
C423        C424   1.382       .  A
C423        H426   1.082       .  S
C424        C425   1.389       .  A
C424        H427   1.081       .  S
C425       C2963   1.497       .  S
N428        C432   1.360       .  A
N428        C429   1.355       .  A
N428       C1936   1.427       .  S
C429       C2560   1.488       .  S
C429        C430   1.382       .  A
C430        C431   1.385       .  A
C430        H433   1.082       .  S
C431        C432   1.387       .  A
C431        H434   1.082       .  S
C432       C1808   1.501       .  S
N435        C439   1.360       .  A
N435        C436   1.354       .  A
N435       C1875   1.427       .  S
C436       C2579   1.483       .  S
C436        C437   1.381       .  A
C437        C438   1.382       .  A
C437        H440   1.082       .  S
C438        C439   1.388       .  A
C438        H441   1.082       .  S
C439       C2931   1.499       .  S
N442        C446   1.355       .  A
N442        C443   1.355       .  A
N442       C1907   1.429       .  S
C443       C2611   1.480       .  S
C443        C444   1.382       .  A
C444        C445   1.381       .  A
C444        H447   1.082       .  S
C445        C446   1.383       .  A
C445        H448   1.082       .  S
C446       C2227   1.483       .  S
Zn449       O453   1.974       .  S
Zn449       O454   2.031       .  S
Zn449       O458   2.039   1_655  S
Zn449       O465   2.041   1_655  S
Zn450       O453   1.978       .  S
Zn450       O455   2.048       .  S
Zn450       O457   2.036       .  S
Zn450       O461   2.055       .  S
Zn451       O453   1.972       .  S
Zn451       O456   2.024   1_655  S
Zn451       O459   2.044       .  S
Zn451       O462   2.023   1_655  S
Zn452       O453   1.970   1_455  S
Zn452       O460   2.031       .  S
Zn452       O463   2.027   1_455  S
Zn452       O464   2.042       .  S
O454        C466   1.276       .  A
O455        C467   1.277       .  A
O456        C468   1.274       .  A
O457        C466   1.276       .  A
O458        C468   1.275       .  A
O459        C467   1.276       .  A
O460        C469   1.276       .  A
O461        C470   1.278       .  A
O462        C469   1.274       .  A
O463        C470   1.275       .  A
O464        C471   1.275       .  A
O465        C471   1.275       .  A
C466       C1792   1.477       .  S
C467       C1779   1.486       .  S
C468       C1760   1.478       .  S
C469       C1824   1.477       .  S
C470       C1843   1.483       .  S
C471       C1811   1.485       .  S
Zn472       O476   1.951       .  S
Zn472       O477   2.007       .  S
Zn472       O481   2.028       .  S
Zn472       O488   2.008       .  S
Zn473       O476   1.957       .  S
Zn473       O478   2.011       .  S
Zn473       O480   2.010       .  S
Zn473       O484   2.015       .  S
Zn474       O476   1.945       .  S
Zn474       O479   2.004       .  S
Zn474       O482   2.012       .  S
Zn474       O485   2.012       .  S
Zn475       O476   1.947       .  S
Zn475       O483   1.996       .  S
Zn475       O486   1.998       .  S
Zn475       O487   2.007       .  S
O477        C489   1.272       .  A
O478        C490   1.271       .  A
O479        C491   1.272       .  A
O480        C489   1.273       .  A
O481        C491   1.274       .  A
O482        C490   1.272       .  A
O483        C492   1.271       .  A
O484        C493   1.273       .  A
O485        C492   1.272       .  A
O486        C493   1.271       .  A
O487        C494   1.270       .  A
O488        C494   1.271       .  A
C489       C1667   1.464       .  S
C490       C1744   1.464       .  S
C491       C1712   1.466       .  S
C492       C1696   1.461       .  S
C493       C1728   1.460       .  S
C494       C1680   1.463       .  S
N495        C499   1.362       .  A
N495        C496   1.359       .  A
N495       C1715   1.439       .  S
C496       C1955   1.480       .  S
C496        C497   1.379       .  A
C497        C498   1.379       .  A
C497        H500   1.082       .  S
C498        C499   1.385       .  A
C498        H501   1.082       .  S
C499       C2864   1.489       .  S
N502        C506   1.358       .  A
N502        C503   1.356       .  A
N502       C1731   1.435       .  S
C503       C1648   1.482       .  S
C503        C504   1.382       .  A
C504        C505   1.384       .  A
C504        H507   1.082       .  S
C505        C506   1.383       .  A
C505        H508   1.082       .  S
C506       C1776   1.486       .  S
N509        C513   1.356       .  A
N509        C510   1.356       .  A
N509       C1683   1.439       .  S
C510       C1971   1.476       .  S
C510        C511   1.382       .  A
C511        C512   1.382       .  A
C511        H514   1.082       .  S
C512        C513   1.382       .  A
C512        H515   1.082       .  S
C513       C1795   1.478       .  S
N516        C520   1.360       .  A
N516        C517   1.358       .  A
N516       C1664   1.445       .  S
C517       C1632   1.472       .  S
C517        C518   1.380       .  A
C518        C519   1.379       .  A
C518        H521   1.082       .  S
C519        C520   1.382       .  A
C519        H522   1.082       .  S
C520       C1987   1.477       .  S
N523        C527   1.357       .  A
N523        C524   1.362       .  A
N523       C1699   1.435       .  S
C524       C2899   1.494       .  S
C524        C525   1.387       .  A
C525        C526   1.380       .  A
C525        H528   1.082       .  S
C526        C527   1.379       .  A
C526        H529   1.082       .  S
C527       C1763   1.480       .  S
N530        C534   1.361       .  A
N530        C531   1.355       .  A
N530       C1747   1.439       .  S
C531       C1619   1.473       .  S
C531        C532   1.379       .  A
C532        C533   1.380       .  A
C532        H535   1.082       .  S
C533        C534   1.386       .  A
C533        H536   1.082       .  S
C534       C2883   1.489       .  S
Zn537       O541   1.948       .  S
Zn537       O542   2.012       .  S
Zn537       O546   2.007       .  S
Zn537       O553   2.016       .  S
Zn538       O541   1.957       .  S
Zn538       O543   2.015       .  S
Zn538       O545   2.017       .  S
Zn538       O549   2.013       .  S
Zn539       O541   1.947       .  S
Zn539       O544   2.001       .  S
Zn539       O547   1.982       .  S
Zn539       O550   2.006       .  S
Zn540       O541   1.943       .  S
Zn540       O548   1.997       .  S
Zn540       O551   1.998       .  S
Zn540       O552   1.985       .  S
O542        C554   1.273       .  A
O543        C555   1.272       .  A
O544        C556   1.272       .  A
O545        C554   1.272       .  A
O546        C556   1.272       .  A
O547        C555   1.268       .  A
O548        C557   1.270       .  A
O549        C558   1.273       .  A
O550        C557   1.270       .  A
O551        C558   1.271       .  A
O552        C559   1.268       .  A
O553        C559   1.273       .  A
C554       C1552   1.465       .  S
C555       C1587   1.454       .  S
C556       C1536   1.460       .  S
C557       C1571   1.461       .  S
C558       C1603   1.460       .  S
C559       C1520   1.462       .  S
N560        C564   1.361       .  A
N560        C561   1.357       .  A
N560       C1555   1.437       .  S
C561       C3011   1.477       .  S
C561        C562   1.379       .  A
C562        C563   1.378       .  A
C562        H565   1.082       .  S
C563        C564   1.386       .  A
C563        H566   1.082       .  S
C564       C1504   1.488       .  S
N567        C571   1.357       .  A
N567        C568   1.359       .  A
N567       C1539   1.438       .  S
C568       C3027   1.483       .  S
C568        C569   1.383       .  A
C569        C570   1.381       .  A
C569        H572   1.082       .  S
C570        C571   1.381       .  A
C570        H573   1.082       .  S
C571       C1491   1.478       .  S
N574        C578   1.355       .  A
N574        C575   1.359       .  A
N574       C1600   1.436       .  S
C575       C1475   1.487       .  S
C575        C576   1.385       .  A
C576        C577   1.381       .  A
C576        H579   1.082       .  S
C577        C578   1.381       .  A
C577        H580   1.082       .  S
C578       C2656   1.478       .  S
N581        C585   1.359       .  A
N581        C582   1.358       .  A
N581       C1523   1.439       .  S
C582       C3040   1.481       .  S
C582        C583   1.382       .  A
C583        C584   1.382       .  A
C583        H586   1.082       .  S
C584        C585   1.382       .  A
C584        H587   1.082       .  S
C585       C2675   1.481       .  S
N588        C592   1.358       .  A
N588        C589   1.356       .  A
N588       C1584   1.432       .  S
C589       C1443   1.482       .  S
C589        C590   1.381       .  A
C590        C591   1.382       .  A
C590        H593   1.082       .  S
C591        C592   1.385       .  A
C591        H594   1.082       .  S
C592       C1456   1.487       .  S
N595        C599   1.357       .  A
N595        C596   1.357       .  A
N595       C1568   1.442       .  S
C596       C1424   1.474       .  S
C596        C597   1.381       .  A
C597        C598   1.380       .  A
C597        H600   1.082       .  S
C598        C599   1.382       .  A
C598        H601   1.082       .  S
C599       C2691   1.476       .  S
Zn602       O606   1.977   1_545  S
Zn602       O607   2.050       .  S
Zn602       O611   2.042       .  S
Zn602       O618   2.042   1_545  S
Zn603       O606   1.963   1_545  S
Zn603       O608   2.023       .  S
Zn603       O610   2.010       .  S
Zn603       O614   2.019   1_545  S
Zn604       O606   1.961   1_545  S
Zn604       O609   2.010       .  S
Zn604       O612   2.028       .  S
Zn604       O615   2.015       .  S
Zn605       O606   1.972       .  S
Zn605       O613   2.050       .  S
Zn605       O616   2.033       .  S
Zn605       O617   2.043       .  S
O607        C619   1.277       .  A
O608        C620   1.273       .  A
O609        C621   1.272       .  A
O610        C619   1.273       .  A
O611        C621   1.277       .  A
O612        C620   1.274       .  A
O613        C622   1.277       .  A
O614        C623   1.273       .  A
O615        C622   1.273   1_545  A
O616        C623   1.276       .  A
O617        C624   1.277       .  A
O618        C624   1.277       .  A
C619       C1616   1.478       .  S
C620       C1472   1.477       .  S
C621       C1459   1.476       .  S
C622       C1507   1.477       .  S
C623       C1635   1.476       .  S
C624       C1651   1.484       .  S
Zn625       O629   1.970       .  S
Zn625       O630   2.033       .  S
Zn625       O634   2.050       .  S
Zn625       O641   2.024       .  S
Zn626       O629   1.977       .  S
Zn626       O631   2.042       .  S
Zn626       O633   2.037       .  S
Zn626       O637   2.040       .  S
Zn627       O629   1.962       .  S
Zn627       O632   2.019       .  S
Zn627       O635   2.025       .  S
Zn627       O638   2.014       .  S
Zn628       O629   1.977       .  S
Zn628       O636   2.036       .  S
Zn628       O639   2.031       .  S
Zn628       O640   2.042       .  S
O630        C642   1.276       .  A
O631        C643   1.276       .  A
O632        C644   1.272       .  A
O633        C642   1.276       .  A
O634        C644   1.276       .  A
O635        C643   1.275       .  A
O636        C645   1.275       .  A
O637        C646   1.276       .  A
O638        C645   1.273       .  A
O639        C646   1.275       .  A
O640        C647   1.276       .  A
O641        C647   1.275       .  A
C642       C1379   1.479       .  S
C643       C1440   1.477       .  S
C644       C1395   1.480       .  S
C645       C1427   1.476       .  S
C646       C1488   1.480       .  S
C647       C1408   1.477       .  S
Zn648       O652   1.955       .  S
Zn648       O653   2.016       .  S
Zn648       O657   2.010       .  S
Zn648       O664   2.003       .  S
Zn649       O652   1.947       .  S
Zn649       O654   2.013       .  S
Zn649       O656   1.991       .  S
Zn649       O660   2.022       .  S
Zn650       O652   1.955       .  S
Zn650       O655   2.015       .  S
Zn650       O658   2.038       .  S
Zn650       O661   1.995       .  S
Zn651       O652   1.953       .  S
Zn651       O659   2.004       .  S
Zn651       O662   1.994       .  S
Zn651       O663   2.019       .  S
O653        C665   1.271       .  A
O654        C666   1.272       .  A
O655        C667   1.272       .  A
O656        C665   1.270       .  A
O657        C667   1.272       .  A
O658        C666   1.275       .  A
O659        C668   1.271       .  A
O660        C669   1.273       .  A
O661        C668   1.270       .  A
O662        C669   1.269       .  A
O663        C670   1.273       .  A
O664        C670   1.271       .  A
C665       C1280   1.457       .  S
C666       C1328   1.470       .  S
C667       C1296   1.461       .  S
C668       C1315   1.454       .  S
C669       C1360   1.461       .  S
C670       C1344   1.462       .  S
N671        C675   1.357       .  A
N671        C672   1.358       .  A
N671       C1312   1.430       .  S
C672       C2163   1.493       .  S
C672        C673   1.385       .  A
C673        C674   1.383       .  A
C673        H676   1.082       .  S
C674        C675   1.383       .  A
C674        H677   1.082       .  S
C675       C1264   1.488       .  S
N678        C682   1.357       .  A
N678        C679   1.357       .  A
N678       C1283   1.430       .  S
C679       C3091   1.489       .  S
C679        C680   1.384       .  A
C680        C681   1.384       .  A
C680        H683   1.082       .  S
C681        C682   1.385       .  A
C681        H684   1.082       .  S
C682       C2739   1.491       .  S
N685        C689   1.359       .  A
N685        C686   1.359       .  A
N685       C1299   1.432       .  S
C686       C2147   1.494       .  S
C686        C687   1.384       .  A
C687        C688   1.384       .  A
C687        H690   1.082       .  S
C688        C689   1.384       .  A
C688        H691   1.082       .  S
C689       C3075   1.493       .  S
N692        C696   1.364       .  A
N692        C693   1.363       .  A
N692       C1331   1.437       .  S
C693       C2195   1.492       .  S
C693        C694   1.383       .  A
C694        C695   1.377       .  A
C694        H697   1.082       .  S
C695        C696   1.385       .  A
C695        H698   1.082       .  S
C696       C2771   1.495       .  S
N699        C703   1.363       .  A
N699        C700   1.360       .  A
N699       C1363   1.433       .  S
C700       C2723   1.491       .  S
C700        C701   1.382       .  A
C701        C702   1.379       .  A
C701        H704   1.082       .  S
C702        C703   1.385       .  A
C702        H705   1.082       .  S
C703       C1248   1.496       .  S
N706        C710   1.361       .  A
N706        C707   1.362       .  A
N706       C1347   1.432       .  S
C707       C3059   1.496       .  S
C707        C708   1.385       .  A
C708        C709   1.380       .  A
C708        H711   1.082       .  S
C709        C710   1.382       .  A
C709        H712   1.082       .  S
C710       C1232   1.493       .  S
Zn713       O717   1.968   1_565  S
Zn713       O718   2.035       .  S
Zn713       O722   2.035   1_565  S
Zn713       O729   2.025       .  S
Zn714       O717   1.961   1_565  S
Zn714       O719   2.019   1_565  S
Zn714       O721   2.025       .  S
Zn714       O725   2.010       .  S
Zn715       O717   1.971       .  S
Zn715       O720   2.016       .  S
Zn715       O723   2.050       .  S
Zn715       O726   2.027       .  S
Zn716       O717   1.985   1_565  S
Zn716       O724   2.037   1_565  S
Zn716       O727   2.044       .  S
Zn716       O728   2.054       .  S
O718        C730   1.276       .  A
O719        C731   1.272       .  A
O720        C732   1.273       .  A
O721        C730   1.274       .  A
O722        C732   1.275       .  A
O723        C731   1.275       .  A
O724        C733   1.277       .  A
O725        C734   1.273       .  A
O726        C733   1.276       .  A
O727        C734   1.276       .  A
O728        C735   1.277       .  A
O729        C735   1.274       .  A
C730       C1251   1.478       .  S
C731       C1235   1.481       .  S
C732       C1219   1.473       .  S
C733       C1203   1.478       .  S
C734       C1267   1.474       .  S
C735       C1187   1.484       .  S
Zn736       O740   1.961       .  S
Zn736       O741   2.008       .  S
Zn736       O745   2.010       .  S
Zn736       O752   2.017       .  S
Zn737       O740   1.957       .  S
Zn737       O742   2.010       .  S
Zn737       O744   1.993       .  S
Zn737       O748   2.011       .  S
Zn738       O740   1.947       .  S
Zn738       O743   2.007       .  S
Zn738       O746   2.002       .  S
Zn738       O749   2.012       .  S
Zn739       O740   1.941       .  S
Zn739       O747   2.003       .  S
Zn739       O750   1.990       .  S
Zn739       O751   1.989       .  S
O741        C753   1.273       .  A
O742        C754   1.272       .  A
O743        C755   1.273       .  A
O744        C753   1.271       .  A
O745        C755   1.272       .  A
O746        C754   1.271       .  A
O747        C756   1.272       .  A
O748        C757   1.272       .  A
O749        C756   1.272       .  A
O750        C757   1.270       .  A
O751        C758   1.270       .  A
O752        C758   1.273       .  A
C753       C1152   1.463       .  S
C754       C1168   1.465       .  S
C755       C1091   1.467       .  S
C756       C1139   1.469       .  S
C757       C1107   1.465       .  S
C758       C1123   1.465       .  S
N759        C763   1.360       .  A
N759        C760   1.353       .  A
N759       C1155   1.425       .  S
C760       C2816   1.486       .  S
C760        C761   1.381       .  A
C761        C762   1.385       .  A
C761        H764   1.082       .  S
C762        C763   1.388       .  A
C762        H765   1.082       .  S
C763       C2336   1.501       .  S
N766        C770   1.353       .  A
N766        C767   1.352       .  A
N766       C1104   1.425       .  S
C767       C1184   1.481       .  S
C767        C768   1.383       .  A
C768        C769   1.385       .  A
C768        H771   1.082       .  S
C769        C770   1.384       .  A
C769        H772   1.082       .  S
C770       C2851   1.484       .  S
N773        C777   1.353       .  A
N773        C774   1.358       .  A
N773       C1120   1.427       .  S
C774       C1075   1.495       .  S
C774        C775   1.387       .  A
C775        C776   1.383       .  A
C775        H778   1.082       .  S
C776        C777   1.381       .  A
C776        H779   1.082       .  S
C777       C2832   1.482       .  S
N780        C784   1.349       .  A
N780        C781   1.358       .  A
N780       C1136   1.428       .  S
C781       C1059   1.496       .  S
C781        C782   1.390       .  A
C782        C783   1.383       .  A
C782        H785   1.081       .  S
C783        C784   1.378       .  A
C783        H786   1.082       .  S
C784       C1200   1.470       .  S
N787        C791   1.359       .  A
N787        C788   1.361       .  A
N787       C1088   1.428       .  S
C788       C1040   1.500       .  S
C788        C789   1.387       .  A
C789        C790   1.381       .  A
C789        H792   1.081       .  S
C790        C791   1.382       .  A
C790        H793   1.082       .  S
C791       C2355   1.495       .  S
N794        C798   1.358       .  A
N794        C795   1.353       .  A
N794       C1171   1.428       .  S
C795       C1216   1.480       .  S
C795        C796   1.381       .  A
C796        C797   1.382       .  A
C796        H799   1.082       .  S
C797        C798   1.387       .  A
C797        H800   1.082       .  S
C798       C2371   1.492       .  S
Zn801       O805   1.938       .  S
Zn801       O806   1.981       .  S
Zn801       O810   1.985       .  S
Zn801       O817   2.014       .  S
Zn802       O805   1.959       .  S
Zn802       O807   2.026       .  S
Zn802       O809   2.041       .  S
Zn802       O813   2.017       .  S
Zn803       O805   1.955       .  S
Zn803       O808   2.016       .  S
Zn803       O811   2.012       .  S
Zn803       O814   2.009       .  S
Zn804       O805   1.945       .  S
Zn804       O812   2.005       .  S
Zn804       O815   2.005       .  S
Zn804       O816   2.003       .  S
O806        C818   1.269       .  A
O807        C819   1.275       .  A
O808        C820   1.272       .  A
O809        C818   1.275       .  A
O810        C820   1.269       .  A
O811        C819   1.272       .  A
O812        C821   1.272       .  A
O813        C822   1.274       .  A
O814        C821   1.271       .  A
O815        C822   1.272       .  A
O816        C823   1.270       .  A
O817        C823   1.272       .  A
C818        C992   1.465       .  S
C819       C1008   1.468       .  S
C820        C976   1.457       .  S
C821        C960   1.461       .  S
C822        C944   1.463       .  S
C823       C1024   1.465       .  S
N824        C828   1.359       .  A
N824        C825   1.358       .  A
N824        C995   1.443       .  S
C825       C2240   1.472       .  S
C825        C826   1.380       .  A
C826        C827   1.378       .  A
C826        H829   1.082       .  S
C827        C828   1.382       .  A
C827        H830   1.082       .  S
C828        C928   1.478       .  S
N831        C835   1.355       .  A
N831        C832   1.358       .  A
N831        C979   1.433       .  S
C832       C1376   1.488       .  S
C832        C833   1.385       .  A
C833        C834   1.384       .  A
C833        H836   1.082       .  S
C834        C835   1.382       .  A
C834        H837   1.082       .  S
C835        C912   1.482       .  S
N838        C842   1.357       .  A
N838        C839   1.358       .  A
N838       C1027   1.439       .  S
C839        C896   1.480       .  S
C839        C840   1.383       .  A
C840        C841   1.380       .  A
C840        H843   1.082       .  S
C841        C842   1.381       .  A
C841        H844   1.082       .  S
C842       C2947   1.475       .  S
N845        C849   1.356       .  A
N845        C846   1.360       .  A
N845        C963   1.437       .  S
C846       C1392   1.489       .  S
C846        C847   1.386       .  A
C847        C848   1.382       .  A
C847        H850   1.082       .  S
C848        C849   1.380       .  A
C848        H851   1.082       .  S
C849       C2995   1.478       .  S
N852        C856   1.358       .  A
N852        C853   1.357       .  A
N852        C947   1.438       .  S
C853       C2259   1.480       .  S
C853        C854   1.382       .  A
C854        C855   1.382       .  A
C854        H857   1.082       .  S
C855        C856   1.383       .  A
C855        H858   1.082       .  S
C856       C2979   1.480       .  S
N859        C863   1.364       .  A
N859        C860   1.359       .  A
N859       C1011   1.442       .  S
C860       C2291   1.476       .  S
C860        C861   1.378       .  A
C861        C862   1.376       .  A
C861        H864   1.082       .  S
C862        C863   1.386       .  A
C862        H865   1.082       .  S
C863       C1411   1.488       .  S
Zn866       O870   1.973   1_455  S
Zn866       O871   2.039   1_455  S
Zn866       O875   2.024       .  S
Zn866       O882   2.040       .  S
Zn867       O870   1.967       .  S
Zn867       O872   2.034       .  S
Zn867       O874   2.022       .  S
Zn867       O878   2.028       .  S
Zn868       O870   1.973   1_455  S
Zn868       O873   2.035       .  S
Zn868       O876   2.031   1_455  S
Zn868       O879   2.028       .  S
Zn869       O870   1.969   1_455  S
Zn869       O877   2.025       .  S
Zn869       O880   2.037   1_455  S
Zn869       O881   2.032       .  S
O871        C883   1.276       .  A
O872        C884   1.275       .  A
O873        C885   1.276       .  A
O874        C883   1.274       .  A
O875        C885   1.275       .  A
O876        C884   1.275       .  A
O877        C886   1.274       .  A
O878        C887   1.275       .  A
O879        C886   1.274       .  A
O880        C887   1.276       .  A
O881        C888   1.275       .  A
O882        C888   1.276       .  A
C883       C1072   1.479       .  S
C884        C915   1.480       .  S
C885       C1056   1.478       .  S
C886        C899   1.473       .  S
C887        C931   1.479       .  S
C888       C1043   1.482       .  S
C889        C894   1.387       .  A
C889        C890   1.402       .  A
C889        S895   1.708       .  A
C890        C891   1.403       .  A
C890        H901   1.083       .  S
C891        C900   1.371       .  A
C891        C892   1.387       .  A
C892        C893   1.404       .  A
C892        S898   1.711       .  A
C893        C894   1.405       .  A
C893        H902   1.083       .  S
C894        C897   1.373       .  A
S895        C896   1.722       .  A
C896        C897   1.388       .  A
C897        H903   1.083       .  S
S898        C899   1.724       .  A
C899        C900   1.386       .  A
C900        H904   1.083       .  S
C905        C910   1.387       .  A
C905        C906   1.404       .  A
C905        S911   1.710       .  A
C906        C907   1.405       .  A
C906        H917   1.083       .  S
C907        C916   1.374       .  A
C907        C908   1.386       .  A
C908        C909   1.405       .  A
C908        S914   1.711       .  A
C909        C910   1.405       .  A
C909        H918   1.083       .  S
C910        C913   1.375       .  A
S911        C912   1.724       .  A
C912        C913   1.387       .  A
C913        H919   1.083       .  S
S914        C915   1.725       .  A
C915        C916   1.389       .  A
C916        H920   1.083       .  S
C921        C926   1.387       .  A
C921        C922   1.403       .  A
C921        S927   1.707       .  A
C922        C923   1.403       .  A
C922        H933   1.083       .  S
C923        C932   1.373       .  A
C923        C924   1.386       .  A
C924        C925   1.405       .  A
C924        S930   1.711       .  A
C925        C926   1.405       .  A
C925        H934   1.083       .  S
C926        C929   1.376       .  A
S927        C928   1.722       .  A
C928        C929   1.387       .  A
C929        H935   1.083       .  S
S930        C931   1.726       .  A
C931        C932   1.388       .  A
C932        H936   1.083       .  S
C937        C942   1.388       .  A
C937        C938   1.400       .  A
C937        S943   1.705       .  A
C938        C939   1.401       .  A
C938        H949   1.083       .  S
C939        C948   1.368       .  A
C939        C940   1.387       .  A
C940        C941   1.399       .  A
C940        S946   1.702       .  A
C941        C942   1.400       .  A
C941        H950   1.083       .  S
C942        C945   1.368       .  A
S943        C944   1.721       .  A
C944        C945   1.383       .  A
C945        H951   1.083       .  S
S946        C947   1.724       .  A
C947        C948   1.386       .  A
C948        H952   1.082       .  S
C953        C958   1.388       .  A
C953        C954   1.401       .  A
C953        S959   1.707       .  A
C954        C955   1.402       .  A
C954        H965   1.083       .  S
C955        C964   1.369       .  A
C955        C956   1.387       .  A
C956        C957   1.396       .  A
C956        S962   1.699       .  A
C957        C958   1.398       .  A
C957        H966   1.083       .  S
C958        C961   1.365       .  A
S959        C960   1.722       .  A
C960        C961   1.381       .  A
C961        H967   1.083       .  S
S962        C963   1.722       .  A
C963        C964   1.386       .  A
C964        H968   1.083       .  S
C969        C974   1.388       .  A
C969        C970   1.394       .  A
C969        S975   1.698       .  A
C970        C971   1.395       .  A
C970        H981   1.083       .  S
C971        C980   1.361       .  A
C971        C972   1.388       .  A
C972        C973   1.402       .  A
C972        S978   1.708       .  A
C973        C974   1.403       .  A
C973        H982   1.083       .  S
C974        C977   1.370       .  A
S975        C976   1.717       .  A
C976        C977   1.384       .  A
C977        H983   1.083       .  S
S978        C979   1.724       .  A
C979        C980   1.380       .  A
C980        H984   1.083       .  S
C985        C990   1.388       .  A
C985        C986   1.400       .  A
C985        S991   1.702       .  A
C986        C987   1.400       .  A
C986        H997   1.083       .  S
C987        C996   1.369       .  A
C987        C988   1.386       .  A
C988        C989   1.401       .  A
C988        S994   1.702       .  A
C989        C990   1.401       .  A
C989        H998   1.083       .  S
C990        C993   1.372       .  A
S991        C992   1.722       .  A
C992        C993   1.384       .  A
C993        H999   1.083       .  S
S994        C995   1.726       .  A
C995        C996   1.387       .  A
C996       H1000   1.082       .  S
C1001      C1006   1.387       .  A
C1001      C1002   1.404       .  A
C1001      S1007   1.709       .  A
C1002      C1003   1.404       .  A
C1002      H1013   1.083       .  S
C1003      C1012   1.373       .  A
C1003      C1004   1.387       .  A
C1004      C1005   1.398       .  A
C1004      S1010   1.700       .  A
C1005      C1006   1.399       .  A
C1005      H1014   1.083       .  S
C1006      C1009   1.368       .  A
S1007      C1008   1.724       .  A
C1008      C1009   1.383       .  A
C1009      H1015   1.083       .  S
S1010      C1011   1.724       .  A
C1011      C1012   1.389       .  A
C1012      H1016   1.082       .  S
C1017      C1022   1.387       .  A
C1017      C1018   1.399       .  A
C1017      S1023   1.705       .  A
C1018      C1019   1.400   1_655  A
C1018      H1029   1.083       .  S
C1019      C1028   1.365       .  A
C1019      C1020   1.387   1_455  A
C1020      C1021   1.400       .  A
C1020      S1026   1.705   1_655  A
C1021      C1022   1.401       .  A
C1021      H1030   1.083       .  S
C1022      C1025   1.368       .  A
S1023      C1024   1.722       .  A
C1024      C1025   1.384       .  A
C1025      H1031   1.083       .  S
S1026      C1027   1.725       .  A
C1027      C1028   1.385       .  A
C1028      H1032   1.081       .  S
C1033      C1038   1.384       .  A
C1033      C1034   1.404       .  A
C1033      S1039   1.706       .  A
C1034      C1035   1.405       .  A
C1034      H1045   1.083       .  S
C1035      C1044   1.375       .  A
C1035      C1036   1.386       .  A
C1036      C1037   1.405       .  A
C1036      S1042   1.711       .  A
C1037      C1038   1.406       .  A
C1037      H1046   1.083       .  S
C1038      C1041   1.375       .  A
S1039      C1040   1.730       .  A
C1040      C1041   1.394       .  A
C1041      H1047   1.082       .  S
S1042      C1043   1.726       .  A
C1043      C1044   1.389       .  A
C1044      H1048   1.083       .  S
C1049      C1054   1.386       .  A
C1049      C1050   1.404       .  A
C1049      S1055   1.710       .  A
C1050      C1051   1.404       .  A
C1050      H1061   1.083       .  S
C1051      C1060   1.373       .  A
C1051      C1052   1.384       .  A
C1052      C1053   1.402       .  A
C1052      S1058   1.704       .  A
C1053      C1054   1.403       .  A
C1053      H1062   1.083       .  S
C1054      C1057   1.372       .  A
S1055      C1056   1.725       .  A
C1056      C1057   1.389       .  A
C1057      H1063   1.083       .  S
S1058      C1059   1.729       .  A
C1059      C1060   1.392       .  A
C1060      H1064   1.082       .  S
C1065      C1070   1.387       .  A
C1065      C1066   1.404       .  A
C1065      S1071   1.708       .  A
C1066      C1067   1.404       .  A
C1066      H1077   1.083       .  S
C1067      C1076   1.375       .  A
C1067      C1068   1.384       .  A
C1068      C1069   1.404       .  A
C1068      S1074   1.705       .  A
C1069      C1070   1.404       .  A
C1069      H1078   1.083       .  S
C1070      C1073   1.375       .  A
S1071      C1072   1.725       .  A
C1072      C1073   1.389       .  A
C1073      H1079   1.083   1_655  S
S1074      C1075   1.729       .  A
C1075      C1076   1.391       .  A
C1076      H1080   1.082       .  S
C1081      C1086   1.389       .  A
C1081      C1082   1.397       .  A
C1081      S1087   1.705       .  A
C1082      C1083   1.399       .  A
C1082      H1093   1.083       .  S
C1083      C1092   1.365       .  A
C1083      C1084   1.387       .  A
C1084      C1085   1.401       .  A
C1084      S1090   1.707       .  A
C1085      C1086   1.402       .  A
C1085      H1094   1.083       .  S
C1086      C1089   1.368       .  A
S1087      C1088   1.718       .  A
C1088      C1089   1.383       .  A
C1089      H1095   1.082       .  S
S1090      C1091   1.723       .  A
C1091      C1092   1.384       .  A
C1092      H1096   1.083       .  S
C1097      C1102   1.389   1_545  A
C1097      C1098   1.399       .  A
C1097      S1103   1.703   1_545  A
C1098      C1099   1.400       .  A
C1098      H1109   1.083       .  S
C1099      C1108   1.368       .  A
C1099      C1100   1.388       .  A
C1100      C1101   1.398       .  A
C1100      S1106   1.701       .  A
C1101      C1102   1.398   1_545  A
C1101      H1110   1.083       .  S
C1102      C1105   1.366       .  A
S1103      C1104   1.718       .  A
C1104      C1105   1.377       .  A
C1105      H1111   1.082       .  S
S1106      C1107   1.721       .  A
C1107      C1108   1.385       .  A
C1108      H1112   1.083       .  S
C1113      C1118   1.389       .  A
C1113      C1114   1.401       .  A
C1113      S1119   1.709   1_455  A
C1114      C1115   1.403       .  A
C1114      H1125   1.083       .  S
C1115      C1124   1.370       .  A
C1115      C1116   1.388       .  A
C1116      C1117   1.396       .  A
C1116      S1122   1.699       .  A
C1117      C1118   1.397       .  A
C1117      H1126   1.083       .  S
C1118      C1121   1.363   1_455  A
S1119      C1120   1.719       .  A
C1120      C1121   1.378       .  A
C1121      H1127   1.083       .  S
S1122      C1123   1.720       .  A
C1123      C1124   1.386       .  A
C1124      H1128   1.083       .  S
C1129      C1134   1.389       .  A
C1129      C1130   1.399       .  A
C1129      S1135   1.707       .  A
C1130      C1131   1.401       .  A
C1130      H1141   1.083       .  S
C1131      C1140   1.367       .  A
C1131      C1132   1.387       .  A
C1132      C1133   1.400       .  A
C1132      S1138   1.706       .  A
C1133      C1134   1.401       .  A
C1133      H1142   1.083       .  S
C1134      C1137   1.367       .  A
S1135      C1136   1.717       .  A
C1136      C1137   1.381       .  A
C1137      H1143   1.083       .  S
S1138      C1139   1.723       .  A
C1139      C1140   1.386       .  A
C1140      H1144   1.083       .  S
C1145      C1150   1.388       .  A
C1145      C1146   1.396       .  A
C1145      S1151   1.702       .  A
C1146      C1147   1.398   1_554  A
C1146      H1157   1.083       .  S
C1147      C1156   1.362       .  A
C1147      C1148   1.389   1_556  A
C1148      C1149   1.398       .  A
C1148      S1154   1.707   1_554  A
C1149      C1150   1.400       .  A
C1149      H1158   1.083       .  S
C1150      C1153   1.365       .  A
S1151      C1152   1.721       .  A
C1152      C1153   1.384       .  A
C1153      H1159   1.083       .  S
S1154      C1155   1.718       .  A
C1155      C1156   1.379       .  A
C1156      H1160   1.083       .  S
C1161      C1166   1.388       .  A
C1161      C1162   1.397       .  A
C1161      S1167   1.702       .  A
C1162      C1163   1.398       .  A
C1162      H1173   1.083       .  S
C1163      C1172   1.364       .  A
C1163      C1164   1.389       .  A
C1164      C1165   1.401       .  A
C1164      S1170   1.709       .  A
C1165      C1166   1.402       .  A
C1165      H1174   1.083       .  S
C1166      C1169   1.369       .  A
S1167      C1168   1.720       .  A
C1168      C1169   1.386       .  A
C1169      H1175   1.083       .  S
S1170      C1171   1.719       .  A
C1171      C1172   1.380       .  A
C1172      H1176   1.083       .  S
C1177      C1182   1.387       .  A
C1177      C1178   1.408       .  A
C1177      S1183   1.713       .  A
C1178      C1179   1.408       .  A
C1178      H1189   1.083       .  S
C1179      C1188   1.380       .  A
C1179      C1180   1.387       .  A
C1180      C1181   1.404       .  A
C1180      S1186   1.707       .  A
C1181      C1182   1.403       .  A
C1181      H1190   1.083       .  S
C1182      C1185   1.375       .  A
S1183      C1184   1.724       .  A
C1184      C1185   1.386       .  A
C1185      H1191   1.083       .  S
S1186      C1187   1.725       .  A
C1187      C1188   1.392       .  A
C1188      H1192   1.083       .  S
C1193      C1198   1.388       .  A
C1193      C1194   1.404       .  A
C1193      S1199   1.709       .  A
C1194      C1195   1.404       .  A
C1194      H1205   1.083       .  S
C1195      C1204   1.374       .  A
C1195      C1196   1.387       .  A
C1196      C1197   1.402       .  A
C1196      S1202   1.707       .  A
C1197      C1198   1.402       .  A
C1197      H1206   1.083       .  S
C1198      C1201   1.372       .  A
S1199      C1200   1.720       .  A
C1200      C1201   1.383       .  A
C1201      H1207   1.083       .  S
S1202      C1203   1.724       .  A
C1203      C1204   1.389       .  A
C1204      H1208   1.083       .  S
C1209      C1214   1.387       .  A
C1209      C1210   1.404       .  A
C1209      S1215   1.708       .  A
C1210      C1211   1.404       .  A
C1210      H1221   1.083       .  S
C1211      C1220   1.374       .  A
C1211      C1212   1.387       .  A
C1212      C1213   1.402       .  A
C1212      S1218   1.706       .  A
C1213      C1214   1.402       .  A
C1213      H1222   1.083       .  S
C1214      C1217   1.372       .  A
S1215      C1216   1.725       .  A
C1216      C1217   1.385       .  A
C1217      H1223   1.083       .  S
S1218      C1219   1.723       .  A
C1219      C1220   1.388       .  A
C1220      H1224   1.083       .  S
C1225      C1230   1.385       .  A
C1225      C1226   1.407       .  A
C1225      S1231   1.711       .  A
C1226      C1227   1.407       .  A
C1226      H1237   1.083       .  S
C1227      C1236   1.378       .  A
C1227      C1228   1.387       .  A
C1228      C1229   1.404       .  A
C1228      S1234   1.708       .  A
C1229      C1230   1.404       .  A
C1229      H1238   1.083       .  S
C1230      C1233   1.374       .  A
S1231      C1232   1.728       .  A
C1232      C1233   1.391       .  A
C1233      H1239   1.081       .  S
S1234      C1235   1.725       .  A
C1235      C1236   1.390       .  A
C1236      H1240   1.083       .  S
C1241      C1246   1.384       .  A
C1241      C1242   1.403       .  A
C1241      S1247   1.706       .  A
C1242      C1243   1.403       .  A
C1242      H1253   1.083       .  S
C1243      C1252   1.373       .  A
C1243      C1244   1.387       .  A
C1244      C1245   1.405       .  A
C1244      S1250   1.710       .  A
C1245      C1246   1.406       .  A
C1245      H1254   1.083       .  S
C1246      C1249   1.375       .  A
S1247      C1248   1.728       .  A
C1248      C1249   1.393       .  A
C1249      H1255   1.080       .  S
S1250      C1251   1.726       .  A
C1251      C1252   1.388       .  A
C1252      H1256   1.083       .  S
C1257      C1262   1.385       .  A
C1257      C1258   1.406       .  A
C1257      S1263   1.711       .  A
C1258      C1259   1.406       .  A
C1258      H1269   1.083       .  S
C1259      C1268   1.376       .  A
C1259      C1260   1.387       .  A
C1260      C1261   1.400       .  A
C1260      S1266   1.704       .  A
C1261      C1262   1.401       .  A
C1261      H1270   1.083       .  S
C1262      C1265   1.370       .  A
S1263      C1264   1.727       .  A
C1264      C1265   1.389       .  A
C1265      H1271   1.081       .  S
S1266      C1267   1.723       .  A
C1267      C1268   1.389       .  A
C1268      H1272   1.083       .  S
C1273      C1278   1.388       .  A
C1273      C1274   1.402       .  A
C1273      S1279   1.710       .  A
C1274      C1275   1.403       .  A
C1274      H1285   1.083       .  S
C1275      C1284   1.367       .  A
C1275      C1276   1.389       .  A
C1276      C1277   1.394       .  A
C1276      S1282   1.701       .  A
C1277      C1278   1.396       .  A
C1277      H1286   1.083       .  S
C1278      C1281   1.361       .  A
S1279      C1280   1.721       .  A
C1280      C1281   1.379       .  A
C1281      H1287   1.083       .  S
S1282      C1283   1.718       .  A
C1283      C1284   1.384       .  A
C1284      H1288   1.083       .  S
C1289      C1294   1.388       .  A
C1289      C1290   1.400       .  A
C1289      S1295   1.707       .  A
C1290      C1291   1.401       .  A
C1290      H1301   1.083       .  S
C1291      C1300   1.366       .  A
C1291      C1292   1.388       .  A
C1292      C1293   1.398       .  A
C1292      S1298   1.705       .  A
C1293      C1294   1.400       .  A
C1293      H1302   1.083       .  S
C1294      C1297   1.367       .  A
S1295      C1296   1.721       .  A
C1296      C1297   1.382       .  A
C1297      H1303   1.083       .  S
S1298      C1299   1.720       .  A
C1299      C1300   1.383       .  A
C1300      H1304   1.083       .  S
C1305      C1310   1.389       .  A
C1305      C1306   1.399       .  A
C1305      S1311   1.705       .  A
C1306      C1307   1.400       .  A
C1306      H1317   1.083       .  S
C1307      C1316   1.367       .  A
C1307      C1308   1.388       .  A
C1308      C1309   1.397       .  A
C1308      S1314   1.702       .  A
C1309      C1310   1.398       .  A
C1309      H1318   1.083       .  S
C1310      C1313   1.364       .  A
S1311      C1312   1.721       .  A
C1312      C1313   1.381       .  A
C1313      H1319   1.083       .  S
S1314      C1315   1.717       .  A
C1315      C1316   1.382       .  A
C1316      H1320   1.083       .  S
C1321      C1326   1.387       .  A
C1321      C1322   1.401       .  A
C1321      S1327   1.706       .  A
C1322      C1323   1.401       .  A
C1322      H1333   1.083       .  S
C1323      C1332   1.369       .  A
C1323      C1324   1.388       .  A
C1324      C1325   1.403       .  A
C1324      S1330   1.708       .  A
C1325      C1326   1.404       .  A
C1325      H1334   1.083       .  S
C1326      C1329   1.373       .  A
S1327      C1328   1.722       .  A
C1328      C1329   1.386       .  A
C1329      H1335   1.083       .  S
S1330      C1331   1.724       .  A
C1331      C1332   1.384       .  A
C1332      H1336   1.083       .  S
C1337      C1342   1.388       .  A
C1337      C1338   1.399       .  A
C1337      S1343   1.705       .  A
C1338      C1339   1.400   1_565  A
C1338      H1349   1.083       .  S
C1339      C1348   1.366       .  A
C1339      C1340   1.388       .  A
C1340      C1341   1.399   1_545  A
C1340      S1346   1.705       .  A
C1341      C1342   1.400       .  A
C1341      H1350   1.083       .  S
C1342      C1345   1.368       .  A
S1343      C1344   1.721       .  A
C1344      C1345   1.383       .  A
C1345      H1351   1.083       .  S
S1346      C1347   1.722       .  A
C1347      C1348   1.383       .  A
C1348      H1352   1.083       .  S
C1353      C1358   1.388       .  A
C1353      C1354   1.400       .  A
C1353      S1359   1.704       .  A
C1354      C1355   1.400       .  A
C1354      H1365   1.083       .  S
C1355      C1364   1.368       .  A
C1355      C1356   1.388       .  A
C1356      C1357   1.399       .  A
C1356      S1362   1.703       .  A
C1357      C1358   1.400       .  A
C1357      H1366   1.083       .  S
C1358      C1361   1.369       .  A
S1359      C1360   1.720       .  A
C1360      C1361   1.383       .  A
C1361      H1367   1.083       .  S
S1362      C1363   1.722       .  A
C1363      C1364   1.383       .  A
C1364      H1368   1.083       .  S
C1369      C1374   1.386       .  A
C1369      C1370   1.403       .  A
C1369      S1375   1.706       .  A
C1370      C1371   1.403       .  A
C1370      H1381   1.083       .  S
C1371      C1380   1.373       .  A
C1371      C1372   1.386       .  A
C1372      C1373   1.406       .  A
C1372      S1378   1.711       .  A
C1373      C1374   1.406       .  A
C1373      H1382   1.083       .  S
C1374      C1377   1.376       .  A
S1375      C1376   1.727       .  A
C1376      C1377   1.390       .  A
C1377      H1383   1.083       .  S
S1378      C1379   1.725       .  A
C1379      C1380   1.388       .  A
C1380      H1384   1.083       .  S
C1385      C1390   1.385       .  A
C1385      C1386   1.404       .  A
C1385      S1391   1.708       .  A
C1386      C1387   1.404       .  A
C1386      H1397   1.083       .  S
C1387      C1396   1.376       .  A
C1387      C1388   1.387       .  A
C1388      C1389   1.405       .  A
C1388      S1394   1.709       .  A
C1389      C1390   1.405       .  A
C1389      H1398   1.083       .  S
C1390      C1393   1.375       .  A
S1391      C1392   1.727       .  A
C1392      C1393   1.390       .  A
C1393      H1399   1.083       .  S
S1394      C1395   1.727       .  A
C1395      C1396   1.388       .  A
C1396      H1400   1.083       .  S
C1401      C1406   1.387       .  A
C1401      C1402   1.403       .  A
C1401      S1407   1.706       .  A
C1402      C1403   1.402       .  A
C1402      H1413   1.083       .  S
C1403      C1412   1.373       .  A
C1403      C1404   1.385       .  A
C1404      C1405   1.405       .  A
C1404      S1410   1.706       .  A
C1405      C1406   1.405       .  A
C1405      H1414   1.083       .  S
C1406      C1409   1.376       .  A
S1407      C1408   1.724       .  A
C1408      C1409   1.389       .  A
C1409      H1415   1.083       .  S
S1410      C1411   1.728       .  A
C1411      C1412   1.389       .  A
C1412      H1416   1.081       .  S
C1417      C1422   1.387       .  A
C1417      C1418   1.404       .  A
C1417      S1423   1.710       .  A
C1418      C1419   1.404       .  A
C1418      H1429   1.083       .  S
C1419      C1428   1.374       .  A
C1419      C1420   1.387       .  A
C1420      C1421   1.402       .  A
C1420      S1426   1.706       .  A
C1421      C1422   1.402       .  A
C1421      H1430   1.083       .  S
C1422      C1425   1.372       .  A
S1423      C1424   1.722       .  A
C1424      C1425   1.384       .  A
C1425      H1431   1.083       .  S
S1426      C1427   1.724       .  A
C1427      C1428   1.388       .  A
C1428      H1432   1.083       .  S
C1433      C1438   1.387       .  A
C1433      C1434   1.402       .  A
C1433      S1439   1.707       .  A
C1434      C1435   1.403       .  A
C1434      H1445   1.083       .  S
C1435      C1444   1.373       .  A
C1435      C1436   1.387       .  A
C1436      C1437   1.406       .  A
C1436      S1442   1.711       .  A
C1437      C1438   1.406       .  A
C1437      H1446   1.083       .  S
C1438      C1441   1.376       .  A
S1439      C1440   1.723       .  A
C1440      C1441   1.389       .  A
C1441      H1447   1.083       .  S
S1442      C1443   1.726       .  A
C1443      C1444   1.385       .  A
C1444      H1448   1.083       .  S
C1449      C1454   1.385       .  A
C1449      C1450   1.403       .  A
C1449      S1455   1.707       .  A
C1450      C1451   1.403       .  A
C1450      H1461   1.083       .  S
C1451      C1460   1.373       .  A
C1451      C1452   1.387       .  A
C1452      C1453   1.404       .  A
C1452      S1458   1.708       .  A
C1453      C1454   1.404       .  A
C1453      H1462   1.083       .  S
C1454      C1457   1.373       .  A
S1455      C1456   1.725       .  A
C1456      C1457   1.391       .  A
C1457      H1463   1.082       .  S
S1458      C1459   1.726       .  A
C1459      C1460   1.387       .  A
C1460      H1464   1.083       .  S
C1465      C1470   1.387       .  A
C1465      C1466   1.403       .  A
C1465      S1471   1.709       .  A
C1466      C1467   1.404       .  A
C1466      H1477   1.083       .  S
C1467      C1476   1.373       .  A
C1467      C1468   1.386       .  A
C1468      C1469   1.403       .  A
C1468      S1474   1.707       .  A
C1469      C1470   1.403       .  A
C1469      H1478   1.083       .  S
C1470      C1473   1.373       .  A
S1471      C1472   1.725       .  A
C1472      C1473   1.388       .  A
C1473      H1479   1.083       .  S
S1474      C1475   1.727       .  A
C1475      C1476   1.389       .  A
C1476      H1480   1.083       .  S
C1481      C1486   1.387       .  A
C1481      C1482   1.405       .  A
C1481      S1487   1.710       .  A
C1482      C1483   1.405       .  A
C1482      H1493   1.083       .  S
C1483      C1492   1.375       .  A
C1483      C1484   1.387       .  A
C1484      C1485   1.404       .  A
C1484      S1490   1.711       .  A
C1485      C1486   1.405       .  A
C1485      H1494   1.083       .  S
C1486      C1489   1.375       .  A
S1487      C1488   1.726       .  A
C1488      C1489   1.389       .  A
C1489      H1495   1.083       .  S
S1490      C1491   1.721       .  A
C1491      C1492   1.387       .  A
C1492      H1496   1.083       .  S
C1497      C1502   1.385       .  A
C1497      C1498   1.403       .  A
C1497      S1503   1.705       .  A
C1498      C1499   1.403       .  A
C1498      H1509   1.083       .  S
C1499      C1508   1.375       .  A
C1499      C1500   1.387       .  A
C1500      C1501   1.405       .  A
C1500      S1506   1.709       .  A
C1501      C1502   1.405       .  A
C1501      H1510   1.083       .  S
C1502      C1505   1.375       .  A
S1503      C1504   1.726       .  A
C1504      C1505   1.391       .  A
C1505      H1511   1.082       .  S
S1506      C1507   1.726       .  A
C1507      C1508   1.387       .  A
C1508      H1512   1.083       .  S
C1513      C1518   1.388       .  A
C1513      C1514   1.399       .  A
C1513      S1519   1.703       .  A
C1514      C1515   1.400       .  A
C1514      H1525   1.083       .  S
C1515      C1524   1.366       .  A
C1515      C1516   1.387       .  A
C1516      C1517   1.397       .  A
C1516      S1522   1.701       .  A
C1517      C1518   1.398       .  A
C1517      H1526   1.083       .  S
C1518      C1521   1.366       .  A
S1519      C1520   1.722       .  A
C1520      C1521   1.382       .  A
C1521      H1527   1.083       .  S
S1522      C1523   1.723       .  A
C1523      C1524   1.386       .  A
C1524      H1528   1.082       .  S
C1529      C1534   1.388       .  A
C1529      C1530   1.398       .  A
C1529      S1535   1.704       .  A
C1530      C1531   1.400       .  A
C1530      H1541   1.083       .  S
C1531      C1540   1.365       .  A
C1531      C1532   1.387       .  A
C1532      C1533   1.398       .  A
C1532      S1538   1.702       .  A
C1533      C1534   1.399       .  A
C1533      H1542   1.083       .  S
C1534      C1537   1.365       .  A
S1535      C1536   1.720       .  A
C1536      C1537   1.383       .  A
C1537      H1543   1.083       .  S
S1538      C1539   1.724       .  A
C1539      C1540   1.385       .  A
C1540      H1544   1.082       .  S
C1545      C1550   1.387       .  A
C1545      C1546   1.403       .  A
C1545      S1551   1.709       .  A
C1546      C1547   1.404       .  A
C1546      H1557   1.083       .  S
C1547      C1556   1.371   1_545  A
C1547      C1548   1.388       .  A
C1548      C1549   1.397       .  A
C1548      S1554   1.700   1_545  A
C1549      C1550   1.398       .  A
C1549      H1558   1.083       .  S
C1550      C1553   1.366       .  A
S1551      C1552   1.723       .  A
C1552      C1553   1.382       .  A
C1553      H1559   1.083       .  S
S1554      C1555   1.722       .  A
C1555      C1556   1.387       .  A
C1556      H1560   1.083       .  S
C1561      C1566   1.386       .  A
C1561      C1562   1.398       .  A
C1561      S1567   1.702       .  A
C1562      C1563   1.399       .  A
C1562      H1573   1.083       .  S
C1563      C1572   1.365       .  A
C1563      C1564   1.388       .  A
C1564      C1565   1.399       .  A
C1564      S1570   1.706       .  A
C1565      C1566   1.401       .  A
C1565      H1574   1.083       .  S
C1566      C1569   1.366       .  A
S1567      C1568   1.724       .  A
C1568      C1569   1.387       .  A
C1569      H1575   1.081       .  S
S1570      C1571   1.720       .  A
C1571      C1572   1.383       .  A
C1572      H1576   1.083       .  S
C1577      C1582   1.388       .  A
C1577      C1578   1.400       .  A
C1577      S1583   1.707       .  A
C1578      C1579   1.401       .  A
C1578      H1589   1.083       .  S
C1579      C1588   1.368       .  A
C1579      C1580   1.389       .  A
C1580      C1581   1.396       .  A
C1580      S1586   1.700       .  A
C1581      C1582   1.397       .  A
C1581      H1590   1.083       .  S
C1582      C1585   1.362       .  A
S1583      C1584   1.722       .  A
C1584      C1585   1.381       .  A
C1585      H1591   1.083       .  S
S1586      C1587   1.717       .  A
C1587      C1588   1.382       .  A
C1588      H1592   1.083       .  S
C1593      C1598   1.387       .  A
C1593      C1594   1.401       .  A
C1593      S1599   1.707       .  A
C1594      C1595   1.402       .  A
C1594      H1605   1.083       .  S
C1595      C1604   1.368       .  A
C1595      C1596   1.388       .  A
C1596      C1597   1.397       .  A
C1596      S1602   1.702       .  A
C1597      C1598   1.398       .  A
C1597      H1606   1.083       .  S
C1598      C1601   1.363       .  A
S1599      C1600   1.724       .  A
C1600      C1601   1.383       .  A
C1601      H1607   1.082       .  S
S1602      C1603   1.719       .  A
C1603      C1604   1.384       .  A
C1604      H1608   1.083       .  S
C1609      C1614   1.387       .  A
C1609      C1610   1.402       .  A
C1609      S1615   1.705       .  A
C1610      C1611   1.402       .  A
C1610      H1621   1.083       .  S
C1611      C1620   1.372       .  A
C1611      C1612   1.388       .  A
C1612      C1613   1.405       .  A
C1612      S1618   1.710       .  A
C1613      C1614   1.405       .  A
C1613      H1622   1.083       .  S
C1614      C1617   1.376       .  A
S1615      C1616   1.725       .  A
C1616      C1617   1.389       .  A
C1617      H1623   1.083       .  S
S1618      C1619   1.721       .  A
C1619      C1620   1.384       .  A
C1620      H1624   1.083       .  S
C1625      C1630   1.388       .  A
C1625      C1626   1.402       .  A
C1625      S1631   1.708       .  A
C1626      C1627   1.403       .  A
C1626      H1637   1.083       .  S
C1627      C1636   1.372       .  A
C1627      C1628   1.387       .  A
C1628      C1629   1.404       .  A
C1628      S1634   1.709       .  A
C1629      C1630   1.404       .  A
C1629      H1638   1.083       .  S
C1630      C1633   1.373       .  A
S1631      C1632   1.719       .  A
C1632      C1633   1.386       .  A
C1633      H1639   1.083       .  S
S1634      C1635   1.725       .  A
C1635      C1636   1.387       .  A
C1636      H1640   1.083       .  S
C1641      C1646   1.387       .  A
C1641      C1642   1.406       .  A
C1641      S1647   1.712       .  A
C1642      C1643   1.406       .  A
C1642      H1653   1.083       .  S
C1643      C1652   1.377       .  A
C1643      C1644   1.386       .  A
C1644      C1645   1.406       .  A
C1644      S1650   1.712       .  A
C1645      C1646   1.406       .  A
C1645      H1654   1.083       .  S
C1646      C1649   1.377       .  A
S1647      C1648   1.723       .  A
C1648      C1649   1.388       .  A
C1649      H1655   1.083       .  S
S1650      C1651   1.726       .  A
C1651      C1652   1.390       .  A
C1652      H1656   1.083       .  S
C1657      C1662   1.386       .  A
C1657      C1658   1.400       .  A
C1657      S1663   1.702       .  A
C1658      C1659   1.401       .  A
C1658      H1669   1.083       .  S
C1659      C1668   1.368       .  A
C1659      C1660   1.388       .  A
C1660      C1661   1.399       .  A
C1660      S1666   1.704       .  A
C1661      C1662   1.400       .  A
C1661      H1670   1.083       .  S
C1662      C1665   1.367       .  A
S1663      C1664   1.727       .  A
C1664      C1665   1.388       .  A
C1665      H1671   1.081       .  S
S1666      C1667   1.721       .  A
C1667      C1668   1.384       .  A
C1668      H1672   1.083       .  S
C1673      C1678   1.388       .  A
C1673      C1674   1.400       .  A
C1673      S1679   1.706       .  A
C1674      C1675   1.401       .  A
C1674      H1685   1.083       .  S
C1675      C1684   1.367       .  A
C1675      C1676   1.387       .  A
C1676      C1677   1.399       .  A
C1676      S1682   1.703       .  A
C1677      C1678   1.400       .  A
C1677      H1686   1.083       .  S
C1678      C1681   1.367       .  A
S1679      C1680   1.721       .  A
C1680      C1681   1.383       .  A
C1681      H1687   1.083       .  S
S1682      C1683   1.724       .  A
C1683      C1684   1.385       .  A
C1684      H1688   1.082       .  S
C1689      C1694   1.388       .  A
C1689      C1690   1.401       .  A
C1689      S1695   1.707       .  A
C1690      C1691   1.402       .  A
C1690      H1701   1.083       .  S
C1691      C1700   1.369   1_655  A
C1691      C1692   1.388       .  A
C1692      C1693   1.396       .  A
C1692      S1698   1.699   1_655  A
C1693      C1694   1.397       .  A
C1693      H1702   1.083       .  S
C1694      C1697   1.364       .  A
S1695      C1696   1.721       .  A
C1696      C1697   1.382       .  A
C1697      H1703   1.083       .  S
S1698      C1699   1.722       .  A
C1699      C1700   1.384       .  A
C1700      H1704   1.083       .  S
C1705      C1710   1.387       .  A
C1705      C1706   1.400       .  A
C1705      S1711   1.708       .  A
C1706      C1707   1.402   1_556  A
C1706      H1717   1.083       .  S
C1707      C1716   1.366       .  A
C1707      C1708   1.387   1_554  A
C1708      C1709   1.400       .  A
C1708      S1714   1.709   1_556  A
C1709      C1710   1.403       .  A
C1709      H1718   1.083       .  S
C1710      C1713   1.368       .  A
S1711      C1712   1.721       .  A
C1712      C1713   1.385       .  A
C1713      H1719   1.083       .  S
S1714      C1715   1.724       .  A
C1715      C1716   1.386       .  A
C1716      H1720   1.082       .  S
C1721      C1726   1.388       .  A
C1721      C1722   1.396       .  A
C1721      S1727   1.702       .  A
C1722      C1723   1.397       .  A
C1722      H1733   1.083       .  S
C1723      C1732   1.362       .  A
C1723      C1724   1.387       .  A
C1724      C1725   1.400       .  A
C1724      S1730   1.706       .  A
C1725      C1726   1.402       .  A
C1725      H1734   1.083       .  S
C1726      C1729   1.367       .  A
S1727      C1728   1.719       .  A
C1728      C1729   1.384       .  A
C1729      H1735   1.083       .  S
S1730      C1731   1.724       .  A
C1731      C1732   1.383       .  A
C1732      H1736   1.082       .  S
C1737      C1742   1.388       .  A
C1737      C1738   1.399       .  A
C1737      S1743   1.704       .  A
C1738      C1739   1.399       .  A
C1738      H1749   1.083       .  S
C1739      C1748   1.368   1_565  A
C1739      C1740   1.387       .  A
C1740      C1741   1.402       .  A
C1740      S1746   1.705   1_565  A
C1741      C1742   1.402       .  A
C1741      H1750   1.083       .  S
C1742      C1745   1.370       .  A
S1743      C1744   1.719       .  A
C1744      C1745   1.386       .  A
C1745      H1751   1.083       .  S
S1746      C1747   1.725       .  A
C1747      C1748   1.384       .  A
C1748      H1752   1.083       .  S
C1753      C1758   1.386       .  A
C1753      C1754   1.404       .  A
C1753      S1759   1.712       .  A
C1754      C1755   1.405       .  A
C1754      H1765   1.083       .  S
C1755      C1764   1.374       .  A
C1755      C1756   1.387       .  A
C1756      C1757   1.403       .  A
C1756      S1762   1.710       .  A
C1757      C1758   1.404       .  A
C1757      H1766   1.083       .  S
C1758      C1761   1.373       .  A
S1759      C1760   1.725       .  A
C1760      C1761   1.389       .  A
C1761      H1767   1.083       .  S
S1762      C1763   1.722       .  A
C1763      C1764   1.388       .  A
C1764      H1768   1.083       .  S
C1769      C1774   1.387       .  A
C1769      C1770   1.408       .  A
C1769      S1775   1.715       .  A
C1770      C1771   1.409       .  A
C1770      H1781   1.083       .  S
C1771      C1780   1.380       .  A
C1771      C1772   1.386       .  A
C1772      C1773   1.405       .  A
C1772      S1778   1.711       .  A
C1773      C1774   1.405       .  A
C1773      H1782   1.083       .  S
C1774      C1777   1.376       .  A
S1775      C1776   1.726       .  A
C1776      C1777   1.387       .  A
C1777      H1783   1.083       .  S
S1778      C1779   1.725       .  A
C1779      C1780   1.393       .  A
C1780      H1784   1.083       .  S
C1785      C1790   1.387       .  A
C1785      C1786   1.404       .  A
C1785      S1791   1.710       .  A
C1786      C1787   1.404       .  A
C1786      H1797   1.083       .  S
C1787      C1796   1.373       .  A
C1787      C1788   1.387       .  A
C1788      C1789   1.403       .  A
C1788      S1794   1.709       .  A
C1789      C1790   1.404       .  A
C1789      H1798   1.083       .  S
C1790      C1793   1.373       .  A
S1791      C1792   1.724       .  A
C1792      C1793   1.388       .  A
C1793      H1799   1.083       .  S
S1794      C1795   1.722       .  A
C1795      C1796   1.387       .  A
C1796      H1800   1.083       .  S
C1801      C1806   1.384       .  A
C1801      C1802   1.405       .  A
C1801      S1807   1.705       .  A
C1802      C1803   1.405       .  A
C1802      H1813   1.083       .  S
C1803      C1812   1.377       .  A
C1803      C1804   1.386       .  A
C1804      C1805   1.407       .  A
C1804      S1810   1.712       .  A
C1805      C1806   1.407       .  A
C1805      H1814   1.083       .  S
C1806      C1809   1.379       .  A
S1807      C1808   1.730       .  A
C1808      C1809   1.394       .  A
C1809      H1815   1.082       .  S
S1810      C1811   1.727       .  A
C1811      C1812   1.390       .  A
C1812      H1816   1.083       .  S
C1817      C1822   1.387       .  A
C1817      C1818   1.405       .  A
C1817      S1823   1.709       .  A
C1818      C1819   1.405       .  A
C1818      H1829   1.083       .  S
C1819      C1828   1.375       .  A
C1819      C1820   1.384       .  A
C1820      C1821   1.402       .  A
C1820      S1826   1.703       .  A
C1821      C1822   1.402       .  A
C1821      H1830   1.083       .  S
C1822      C1825   1.372       .  A
S1823      C1824   1.726       .  A
C1824      C1825   1.387       .  A
C1825      H1831   1.083       .  S
S1826      C1827   1.728       .  A
C1827      C1828   1.392       .  A
C1828      H1832   1.082       .  S
C1833      C1838   1.383       .  A
C1833      C1834   1.408       .  A
C1833      S1839   1.710       .  A
C1834      C1835   1.408       .  A
C1834      H1845   1.083       .  S
C1835      C1844   1.379       .  A
C1835      C1836   1.386       .  A
C1836      C1837   1.403       .  A
C1836      S1842   1.707       .  A
C1837      C1838   1.403       .  A
C1837      H1846   1.083       .  S
C1838      C1841   1.373       .  A
S1839      C1840   1.732       .  A
C1840      C1841   1.393       .  A
C1841      H1847   1.077       .  S
S1842      C1843   1.725       .  A
C1843      C1844   1.392       .  A
C1844      H1848   1.083       .  S
C1849      C1854   1.389       .  A
C1849      C1850   1.401       .  A
C1849      S1855   1.709       .  A
C1850      C1851   1.403       .  A
C1850      H1861   1.083       .  S
C1851      C1860   1.369       .  A
C1851      C1852   1.387       .  A
C1852      C1853   1.400       .  A
C1852      S1858   1.707       .  A
C1853      C1854   1.401       .  A
C1853      H1862   1.083       .  S
C1854      C1857   1.367       .  A
S1855      C1856   1.720       .  A
C1856      C1857   1.382       .  A
C1857      H1863   1.083       .  S
S1858      C1859   1.723       .  A
C1859      C1860   1.387       .  A
C1860      H1864   1.083       .  S
C1865      C1870   1.387       .  A
C1865      C1866   1.398       .  A
C1865      S1871   1.704       .  A
C1866      C1867   1.399       .  A
C1866      H1877   1.083       .  S
C1867      C1876   1.364       .  A
C1867      C1868   1.389       .  A
C1868      C1869   1.399       .  A
C1868      S1874   1.707       .  A
C1869      C1870   1.401       .  A
C1869      H1878   1.083       .  S
C1870      C1873   1.367       .  A
S1871      C1872   1.721       .  A
C1872      C1873   1.385       .  A
C1873      H1879   1.083       .  S
S1874      C1875   1.719       .  A
C1875      C1876   1.380       .  A
C1876      H1880   1.083       .  S
C1881      C1886   1.387       .  A
C1881      C1882   1.399       .  A
C1881      S1887   1.703       .  A
C1882      C1883   1.399   1_455  A
C1882      H1893   1.083       .  S
C1883      C1892   1.366       .  A
C1883      C1884   1.389   1_655  A
C1884      C1885   1.401       .  A
C1884      S1890   1.707   1_455  A
C1885      C1886   1.402       .  A
C1885      H1894   1.083       .  S
C1886      C1889   1.369       .  A
S1887      C1888   1.722       .  A
C1888      C1889   1.386       .  A
C1889      H1895   1.083       .  S
S1890      C1891   1.719       .  A
C1891      C1892   1.381       .  A
C1892      H1896   1.083       .  S
C1897      C1902   1.388       .  A
C1897      C1898   1.396       .  A
C1897      S1903   1.700       .  A
C1898      C1899   1.397       .  A
C1898      H1909   1.083       .  S
C1899      C1908   1.363       .  A
C1899      C1900   1.388       .  A
C1900      C1901   1.401       .  A
C1900      S1906   1.709       .  A
C1901      C1902   1.403       .  A
C1901      H1910   1.083       .  S
C1902      C1905   1.369       .  A
S1903      C1904   1.721       .  A
C1904      C1905   1.386       .  A
C1905      H1911   1.083       .  S
S1906      C1907   1.719       .  A
C1907      C1908   1.379       .  A
C1908      H1912   1.083       .  S
C1913      C1918   1.388       .  A
C1913      C1914   1.397       .  A
C1913      S1919   1.702       .  A
C1914      C1915   1.398       .  A
C1914      H1925   1.083       .  S
C1915      C1924   1.364       .  A
C1915      C1916   1.389       .  A
C1916      C1917   1.399       .  A
C1916      S1922   1.707       .  A
C1917      C1918   1.401       .  A
C1917      H1926   1.083       .  S
C1918      C1921   1.367       .  A
S1919      C1920   1.722       .  A
C1920      C1921   1.385       .  A
C1921      H1927   1.083       .  S
S1922      C1923   1.718       .  A
C1923      C1924   1.380       .  A
C1924      H1928   1.083       .  S
C1929      C1934   1.389       .  A
C1929      C1930   1.399       .  A
C1929      S1935   1.706       .  A
C1930      C1931   1.401       .  A
C1930      H1941   1.083       .  S
C1931      C1940   1.368       .  A
C1931      C1932   1.387       .  A
C1932      C1933   1.399       .  A
C1932      S1938   1.704       .  A
C1933      C1934   1.400       .  A
C1933      H1942   1.083       .  S
C1934      C1937   1.366       .  A
S1935      C1936   1.719       .  A
C1936      C1937   1.381       .  A
C1937      H1943   1.083       .  S
S1938      C1939   1.723       .  A
C1939      C1940   1.385       .  A
C1940      H1944   1.083       .  S
C1945      C1950   1.386       .  A
C1945      C1946   1.405       .  A
C1945      S1951   1.711       .  A
C1946      C1947   1.405       .  A
C1946      H1957   1.083       .  S
C1947      C1956   1.374       .  A
C1947      C1948   1.387       .  A
C1948      C1949   1.405       .  A
C1948      S1954   1.712       .  A
C1949      C1950   1.406       .  A
C1949      H1958   1.083       .  S
C1950      C1953   1.376       .  A
S1951      C1952   1.726       .  A
C1952      C1953   1.390       .  A
C1953      H1959   1.083       .  S
S1954      C1955   1.723       .  A
C1955      C1956   1.387       .  A
C1956      H1960   1.083       .  S
C1961      C1966   1.387       .  A
C1961      C1962   1.402       .  A
C1961      S1967   1.707       .  A
C1962      C1963   1.402       .  A
C1962      H1973   1.083       .  S
C1963      C1972   1.371       .  A
C1963      C1964   1.387       .  A
C1964      C1965   1.404       .  A
C1964      S1970   1.711       .  A
C1965      C1966   1.405       .  A
C1965      H1974   1.083       .  S
C1966      C1969   1.374       .  A
S1967      C1968   1.722       .  A
C1968      C1969   1.388       .  A
C1969      H1975   1.083       .  S
S1970      C1971   1.722       .  A
C1971      C1972   1.385       .  A
C1972      H1976   1.083       .  S
C1977      C1982   1.387       .  A
C1977      C1978   1.402       .  A
C1977      S1983   1.706       .  A
C1978      C1979   1.402       .  A
C1978      H1989   1.083       .  S
C1979      C1988   1.372       .  A
C1979      C1980   1.387       .  A
C1980      C1981   1.406       .  A
C1980      S1986   1.711       .  A
C1981      C1982   1.406       .  A
C1981      H1990   1.083       .  S
C1982      C1985   1.377       .  A
S1983      C1984   1.723       .  A
C1984      C1985   1.390       .  A
C1985      H1991   1.083       .  S
S1986      C1987   1.723       .  A
C1987      C1988   1.385       .  A
C1988      H1992   1.083       .  S
C1993      C1998   1.385       .  A
C1993      C1994   1.405       .  A
C1993      S1999   1.707       .  A
C1994      C1995   1.405       .  A
C1994      H2005   1.083       .  S
C1995      C2004   1.376       .  A
C1995      C1996   1.387       .  A
C1996      C1997   1.402       .  A
C1996      S2002   1.705       .  A
C1997      C1998   1.402       .  A
C1997      H2006   1.083       .  S
C1998      C2001   1.372       .  A
S1999      C2000   1.729       .  A
C2000      C2001   1.391       .  A
C2001      H2007   1.079       .  S
S2002      C2003   1.724       .  A
C2003      C2004   1.388       .  A
C2004      H2008   1.083       .  S
C2009      C2014   1.383       .  A
C2009      C2010   1.401       .  A
C2009      S2015   1.701       .  A
C2010      C2011   1.402       .  A
C2010      H2021   1.083       .  S
C2011      C2020   1.372       .  A
C2011      C2012   1.386       .  A
C2012      C2013   1.408       .  A
C2012      S2018   1.714       .  A
C2013      C2014   1.408       .  A
C2013      H2022   1.083       .  S
C2014      C2017   1.379       .  A
S2015      C2016   1.729       .  A
C2016      C2017   1.396       .  A
C2017      H2023   1.082       .  S
S2018      C2019   1.728       .  A
C2019      C2020   1.388       .  A
C2020      H2024   1.083       .  S
C2025      C2030   1.384       .  A
C2025      C2026   1.405       .  A
C2025      S2031   1.708       .  A
C2026      C2027   1.405       .  A
C2026      H2037   1.083       .  S
C2027      C2036   1.376       .  A
C2027      C2028   1.386       .  A
C2028      C2029   1.404       .  A
C2028      S2034   1.709       .  A
C2029      C2030   1.404       .  A
C2029      H2038   1.083       .  S
C2030      C2033   1.374       .  A
S2031      C2032   1.729       .  A
C2032      C2033   1.392       .  A
C2033      H2039   1.079       .  S
S2034      C2035   1.725       .  A
C2035      C2036   1.390       .  A
C2036      H2040   1.083       .  S
C2041      C2046   1.388       .  A
C2041      C2042   1.403       .  A
C2041      S2047   1.711       .  A
C2042      C2043   1.404       .  A
C2042      H2053   1.083       .  S
C2043      C2052   1.372       .  A
C2043      C2044   1.387       .  A
C2044      C2045   1.399       .  A
C2044      S2050   1.705       .  A
C2045      C2046   1.400       .  A
C2045      H2054   1.083       .  S
C2046      C2049   1.368       .  A
S2047      C2048   1.722       .  A
C2048      C2049   1.381       .  A
C2049      H2055   1.083       .  S
S2050      C2051   1.722       .  A
C2051      C2052   1.388       .  A
C2052      H2056   1.083       .  S
C2057      C2062   1.389       .  A
C2057      C2058   1.396       .  A
C2057      S2063   1.700       .  A
C2058      C2059   1.397       .  A
C2058      H2069   1.083       .  S
C2059      C2068   1.365       .  A
C2059      C2060   1.387       .  A
C2060      C2061   1.402       .  A
C2060      S2066   1.707       .  A
C2061      C2062   1.403       .  A
C2061      H2070   1.083       .  S
C2062      C2065   1.370       .  A
S2063      C2064   1.716       .  A
C2064      C2065   1.382       .  A
C2065      H2071   1.082       .  S
S2066      C2067   1.724       .  A
C2067      C2068   1.383       .  A
C2068      H2072   1.083       .  S
C2073      C2078   1.387       .  A
C2073      C2074   1.398       .  A
C2073      S2079   1.702       .  A
C2074      C2075   1.398       .  A
C2074      H2085   1.083       .  S
C2075      C2084   1.365       .  A
C2075      C2076   1.389       .  A
C2076      C2077   1.399       .  A
C2076      S2082   1.705       .  A
C2077      C2078   1.400       .  A
C2077      H2086   1.083       .  S
C2078      C2081   1.367       .  A
S2079      C2080   1.722       .  A
C2080      C2081   1.384       .  A
C2081      H2087   1.083       .  S
S2082      C2083   1.718       .  A
C2083      C2084   1.381       .  A
C2084      H2088   1.083       .  S
C2089      C2094   1.388       .  A
C2089      C2090   1.396       .  A
C2089      S2095   1.699       .  A
C2090      C2091   1.397       .  A
C2090      H2101   1.083       .  S
C2091      C2100   1.363       .  A
C2091      C2092   1.389       .  A
C2092      C2093   1.402       .  A
C2092      S2098   1.709       .  A
C2093      C2094   1.403       .  A
C2093      H2102   1.083       .  S
C2094      C2097   1.371       .  A
S2095      C2096   1.720       .  A
C2096      C2097   1.386       .  A
C2097      H2103   1.083       .  S
S2098      C2099   1.721       .  A
C2099      C2100   1.379       .  A
C2100      H2104   1.083       .  S
C2105      C2110   1.387       .  A
C2105      C2106   1.398       .  A
C2105      S2111   1.703       .  A
C2106      C2107   1.399       .  A
C2106      H2117   1.083       .  S
C2107      C2116   1.366       .  A
C2107      C2108   1.389       .  A
C2108      C2109   1.402       .  A
C2108      S2114   1.710       .  A
C2109      C2110   1.404       .  A
C2109      H2118   1.083       .  S
C2110      C2113   1.371       .  A
S2111      C2112   1.721       .  A
C2112      C2113   1.388       .  A
C2113      H2119   1.083       .  S
S2114      C2115   1.720       .  A
C2115      C2116   1.381       .  A
C2116      H2120   1.083       .  S
C2121      C2126   1.388   1_554  A
C2121      C2122   1.402       .  A
C2121      S2127   1.710   1_554  A
C2122      C2123   1.404       .  A
C2122      H2133   1.083       .  S
C2123      C2132   1.371       .  A
C2123      C2124   1.387       .  A
C2124      C2125   1.398       .  A
C2124      S2130   1.703       .  A
C2125      C2126   1.399   1_554  A
C2125      H2134   1.083       .  S
C2126      C2129   1.366       .  A
S2127      C2128   1.721       .  A
C2128      C2129   1.381       .  A
C2129      H2135   1.083       .  S
S2130      C2131   1.722       .  A
C2131      C2132   1.387       .  A
C2132      H2136   1.083       .  S
C2137      C2142   1.387       .  A
C2137      C2138   1.406       .  A
C2137      S2143   1.711       .  A
C2138      C2139   1.406       .  A
C2138      H2149   1.083       .  S
C2139      C2148   1.377       .  A
C2139      C2140   1.385       .  A
C2140      C2141   1.404       .  A
C2140      S2146   1.706       .  A
C2141      C2142   1.404       .  A
C2141      H2150   1.083       .  S
C2142      C2145   1.375       .  A
S2143      C2144   1.726       .  A
C2144      C2145   1.388       .  A
C2145      H2151   1.083       .  S
S2146      C2147   1.728       .  A
C2147      C2148   1.391       .  A
C2148      H2152   1.083       .  S
C2153      C2158   1.387       .  A
C2153      C2154   1.404       .  A
C2153      S2159   1.709       .  A
C2154      C2155   1.404       .  A
C2154      H2165   1.083       .  S
C2155      C2164   1.375       .  A
C2155      C2156   1.385       .  A
C2156      C2157   1.405       .  A
C2156      S2162   1.707       .  A
C2157      C2158   1.405       .  A
C2157      H2166   1.083       .  S
C2158      C2161   1.376       .  A
S2159      C2160   1.725       .  A
C2160      C2161   1.389       .  A
C2161      H2167   1.083       .  S
S2162      C2163   1.729       .  A
C2163      C2164   1.390       .  A
C2164      H2168   1.083       .  S
C2169      C2174   1.387       .  A
C2169      C2170   1.403       .  A
C2169      S2175   1.709       .  A
C2170      C2171   1.404       .  A
C2170      H2181   1.083       .  S
C2171      C2180   1.372       .  A
C2171      C2172   1.387       .  A
C2172      C2173   1.404       .  A
C2172      S2178   1.711       .  A
C2173      C2174   1.405       .  A
C2173      H2182   1.083       .  S
C2174      C2177   1.375       .  A
S2175      C2176   1.724       .  A
C2176      C2177   1.389       .  A
C2177      H2183   1.083       .  S
S2178      C2179   1.723       .  A
C2179      C2180   1.387       .  A
C2180      H2184   1.082       .  S
C2185      C2190   1.387       .  A
C2185      C2186   1.404       .  A
C2185      S2191   1.708       .  A
C2186      C2187   1.404       .  A
C2186      H2197   1.083       .  S
C2187      C2196   1.374       .  A
C2187      C2188   1.385       .  A
C2188      C2189   1.406       .  A
C2188      S2194   1.709       .  A
C2189      C2190   1.406       .  A
C2189      H2198   1.083       .  S
C2190      C2193   1.377       .  A
S2191      C2192   1.725       .  A
C2192      C2193   1.390       .  A
C2193      H2199   1.083       .  S
S2194      C2195   1.728       .  A
C2195      C2196   1.391       .  A
C2196      H2200   1.081       .  S
C2201      C2206   1.386       .  A
C2201      C2202   1.406       .  A
C2201      S2207   1.711       .  A
C2202      C2203   1.406       .  A
C2202      H2213   1.083       .  S
C2203      C2212   1.376       .  A
C2203      C2204   1.387       .  A
C2204      C2205   1.402       .  A
C2204      S2210   1.707       .  A
C2205      C2206   1.403       .  A
C2205      H2214   1.083       .  S
C2206      C2209   1.374       .  A
S2207      C2208   1.727       .  A
C2208      C2209   1.387       .  A
C2209      H2215   1.083       .  S
S2210      C2211   1.720       .  A
C2211      C2212   1.388       .  A
C2212      H2216   1.083       .  S
C2217      C2222   1.387       .  A
C2217      C2218   1.406       .  A
C2217      S2223   1.710       .  A
C2218      C2219   1.405       .  A
C2218      H2229   1.083       .  S
C2219      C2228   1.376       .  A
C2219      C2220   1.387       .  A
C2220      C2221   1.404       .  A
C2220      S2226   1.709       .  A
C2221      C2222   1.404       .  A
C2221      H2230   1.083       .  S
C2222      C2225   1.376       .  A
S2223      C2224   1.726       .  A
C2224      C2225   1.389       .  A
C2225      H2231   1.083       .  S
S2226      C2227   1.723       .  A
C2227      C2228   1.389       .  A
C2228      H2232   1.083       .  S
C2233      C2238   1.388       .  A
C2233      C2234   1.401       .  A
C2233      S2239   1.708       .  A
C2234      C2235   1.402       .  A
C2234      H2245   1.083       .  S
C2235      C2244   1.371       .  A
C2235      C2236   1.387       .  A
C2236      C2237   1.404       .  A
C2236      S2242   1.710       .  A
C2237      C2238   1.404       .  A
C2237      H2246   1.083       .  S
C2238      C2241   1.373       .  A
S2239      C2240   1.719       .  A
C2240      C2241   1.386       .  A
C2241      H2247   1.083       .  S
S2242      C2243   1.725       .  A
C2243      C2244   1.387       .  A
C2244      H2248   1.083       .  S
C2249      C2254   1.387       .  A
C2249      C2250   1.406       .  A
C2249      S2255   1.712       .  A
C2250      C2251   1.406       .  A
C2250      H2261   1.083       .  S
C2251      C2260   1.376       .  A
C2251      C2252   1.387       .  A
C2252      C2253   1.404       .  A
C2252      S2258   1.710       .  A
C2253      C2254   1.404       .  A
C2253      H2262   1.083       .  S
C2254      C2257   1.375       .  A
S2255      C2256   1.726       .  A
C2256      C2257   1.388       .  A
C2257      H2263   1.083       .  S
S2258      C2259   1.723       .  A
C2259      C2260   1.387       .  A
C2260      H2264   1.083       .  S
C2265      C2270   1.387       .  A
C2265      C2266   1.401       .  A
C2265      S2271   1.708       .  A
C2266      C2267   1.403       .  A
C2266      H2277   1.083       .  S
C2267      C2276   1.370       .  A
C2267      C2268   1.383       .  A
C2268      C2269   1.406       .  A
C2268      S2274   1.712       .  A
C2269      C2270   1.407       .  A
C2269      H2278   1.083       .  S
C2270      C2273   1.376       .  A
S2271      C2272   1.724       .  A
C2272      C2273   1.390       .  A
C2273      H2279   1.083       .  S
S2274      C2275   1.731       .  A
C2275      C2276   1.393       .  A
C2276      H2280   1.076       .  S
C2281      C2286   1.387       .  A
C2281      C2282   1.403       .  A
C2281      S2287   1.708       .  A
C2282      C2283   1.403       .  A
C2282      H2293   1.083       .  S
C2283      C2292   1.372       .  A
C2283      C2284   1.387       .  A
C2284      C2285   1.404       .  A
C2284      S2290   1.710       .  A
C2285      C2286   1.404       .  A
C2285      H2294   1.083       .  S
C2286      C2289   1.374       .  A
S2287      C2288   1.724       .  A
C2288      C2289   1.388       .  A
C2289      H2295   1.083       .  S
S2290      C2291   1.722       .  A
C2291      C2292   1.385       .  A
C2292      H2296   1.083       .  S
C2297      C2302   1.387       .  A
C2297      C2298   1.404       .  A
C2297      S2303   1.710       .  A
C2298      C2299   1.404       .  A
C2298      H2309   1.083       .  S
C2299      C2308   1.373       .  A
C2299      C2300   1.385       .  A
C2300      C2301   1.400       .  A
C2300      S2306   1.702       .  A
C2301      C2302   1.401       .  A
C2301      H2310   1.083       .  S
C2302      C2305   1.370       .  A
S2303      C2304   1.726       .  A
C2304      C2305   1.386       .  A
C2305      H2311   1.083       .  S
S2306      C2307   1.725       .  A
C2307      C2308   1.390       .  A
C2308      H2312   1.083       .  S
C2313      C2318   1.385       .  A
C2313      C2314   1.404       .  A
C2313      S2319   1.705       .  A
C2314      C2315   1.404       .  A
C2314      H2325   1.083       .  S
C2315      C2324   1.374       .  A
C2315      C2316   1.387       .  A
C2316      C2317   1.402       .  A
C2316      S2322   1.704       .  A
C2317      C2318   1.402       .  A
C2317      H2326   1.083       .  S
C2318      C2321   1.373       .  A
S2319      C2320   1.728       .  A
C2320      C2321   1.388       .  A
C2321      H2327   1.083       .  S
S2322      C2323   1.723       .  A
C2323      C2324   1.388       .  A
C2324      H2328   1.083       .  S
C2329      C2334   1.384       .  A
C2329      C2330   1.403       .  A
C2329      S2335   1.704       .  A
C2330      C2331   1.403       .  A
C2330      H2341   1.083       .  S
C2331      C2340   1.373       .  A
C2331      C2332   1.386       .  A
C2332      C2333   1.407       .  A
C2332      S2338   1.714       .  A
C2333      C2334   1.408       .  A
C2333      H2342   1.083       .  S
C2334      C2337   1.378       .  A
S2335      C2336   1.729       .  A
C2336      C2337   1.395       .  A
C2337      H2343   1.082       .  S
S2338      C2339   1.727       .  A
C2339      C2340   1.389       .  A
C2340      H2344   1.083       .  S
C2345      C2350   1.387       .  A
C2345      C2346   1.402       .  A
C2345      S2351   1.708       .  A
C2346      C2347   1.403       .  A
C2346      H2357   1.083       .  S
C2347      C2356   1.372       .  A
C2347      C2348   1.384       .  A
C2348      C2349   1.406       .  A
C2348      S2354   1.711       .  A
C2349      C2350   1.407       .  A
C2349      H2358   1.083       .  S
C2350      C2353   1.376       .  A
S2351      C2352   1.724       .  A
C2352      C2353   1.390       .  A
C2353      H2359   1.083       .  S
S2354      C2355   1.729       .  A
C2355      C2356   1.391       .  A
C2356      H2360   1.079       .  S
C2361      C2366   1.387       .  A
C2361      C2362   1.402       .  A
C2361      S2367   1.707       .  A
C2362      C2363   1.403       .  A
C2362      H2373   1.083       .  S
C2363      C2372   1.371       .  A
C2363      C2364   1.384       .  A
C2364      C2365   1.405       .  A
C2364      S2370   1.709       .  A
C2365      C2366   1.406       .  A
C2365      H2374   1.083       .  S
C2366      C2369   1.375       .  A
S2367      C2368   1.724       .  A
C2368      C2369   1.390       .  A
C2369      H2375   1.083       .  S
S2370      C2371   1.729       .  A
C2371      C2372   1.392       .  A
C2372      H2376   1.078       .  S
C2377      C2382   1.387       .  A
C2377      C2378   1.405       .  A
C2377      S2383   1.710       .  A
C2378      C2379   1.405       .  A
C2378      H2389   1.083       .  S
C2379      C2388   1.376       .  A
C2379      C2380   1.387       .  A
C2380      C2381   1.403       .  A
C2380      S2386   1.707       .  A
C2381      C2382   1.403       .  A
C2381      H2390   1.083       .  S
C2382      C2385   1.374       .  A
S2383      C2384   1.723       .  A
C2384      C2385   1.385       .  A
C2385      H2391   1.083       .  S
S2386      C2387   1.725       .  A
C2387      C2388   1.390       .  A
C2388      H2392   1.083       .  S
C2393      C2398   1.386       .  A
C2393      C2394   1.406       .  A
C2393      S2399   1.713       .  A
C2394      C2395   1.406       .  A
C2394      H2405   1.083       .  S
C2395      C2404   1.376       .  A
C2395      C2396   1.387       .  A
C2396      C2397   1.403       .  A
C2396      S2402   1.709       .  A
C2397      C2398   1.404       .  A
C2397      H2406   1.083       .  S
C2398      C2401   1.372       .  A
S2399      C2400   1.723       .  A
C2400      C2401   1.387       .  A
C2401      H2407   1.083       .  S
S2402      C2403   1.724       .  A
C2403      C2404   1.389       .  A
C2404      H2408   1.083       .  S
C2409      C2414   1.387       .  A
C2409      C2410   1.402       .  A
C2409      S2415   1.707       .  A
C2410      C2411   1.402       .  A
C2410      H2421   1.083       .  S
C2411      C2420   1.372       .  A
C2411      C2412   1.386       .  A
C2412      C2413   1.408       .  A
C2412      S2418   1.715       .  A
C2413      C2414   1.408       .  A
C2413      H2422   1.083       .  S
C2414      C2417   1.379       .  A
S2415      C2416   1.723       .  A
C2416      C2417   1.392       .  A
C2417      H2423   1.083       .  S
S2418      C2419   1.726       .  A
C2419      C2420   1.386       .  A
C2420      H2424   1.082       .  S
C2425      C2430   1.388       .  A
C2425      C2426   1.396       .  A
C2425      S2431   1.699       .  A
C2426      C2427   1.396       .  A
C2426      H2437   1.083       .  S
C2427      C2436   1.363       .  A
C2427      C2428   1.390       .  A
C2428      C2429   1.399       .  A
C2428      S2434   1.705       .  A
C2429      C2430   1.400       .  A
C2429      H2438   1.083       .  S
C2430      C2433   1.367       .  A
S2431      C2432   1.720       .  A
C2432      C2433   1.384       .  A
C2433      H2439   1.083       .  S
S2434      C2435   1.719       .  A
C2435      C2436   1.379       .  A
C2436      H2440   1.083       .  S
C2441      C2446   1.387       .  A
C2441      C2442   1.398       .  A
C2441      S2447   1.704       .  A
C2442      C2443   1.399       .  A
C2442      H2453   1.083       .  S
C2443      C2452   1.364       .  A
C2443      C2444   1.390       .  A
C2444      C2445   1.397       .  A
C2444      S2450   1.704       .  A
C2445      C2446   1.399       .  A
C2445      H2454   1.083       .  S
C2446      C2449   1.364       .  A
S2447      C2448   1.721       .  A
C2448      C2449   1.384       .  A
C2449      H2455   1.083       .  S
S2450      C2451   1.719       .  A
C2451      C2452   1.380       .  A
C2452      H2456   1.083       .  S
C2457      C2462   1.388       .  A
C2457      C2458   1.393       .  A
C2457      S2463   1.695       .  A
C2458      C2459   1.394       .  A
C2458      H2469   1.083       .  S
C2459      C2468   1.359       .  A
C2459      C2460   1.389       .  A
C2460      C2461   1.402       .  A
C2460      S2466   1.709       .  A
C2461      C2462   1.403       .  A
C2461      H2470   1.083       .  S
C2462      C2465   1.370       .  A
S2463      C2464   1.719       .  A
C2464      C2465   1.385       .  A
C2465      H2471   1.083       .  S
S2466      C2467   1.721       .  A
C2467      C2468   1.376       .  A
C2468      H2472   1.083       .  S
C2473      C2478   1.387       .  A
C2473      C2474   1.400       .  A
C2473      S2479   1.706       .  A
C2474      C2475   1.400       .  A
C2474      H2485   1.083       .  S
C2475      C2484   1.367       .  A
C2475      C2476   1.389       .  A
C2476      C2477   1.399       .  A
C2476      S2482   1.706       .  A
C2477      C2478   1.401       .  A
C2477      H2486   1.083       .  S
C2478      C2481   1.367       .  A
S2479      C2480   1.722       .  A
C2480      C2481   1.385       .  A
C2481      H2487   1.083       .  S
S2482      C2483   1.719       .  A
C2483      C2484   1.382       .  A
C2484      H2488   1.082       .  S
C2489      C2494   1.388       .  A
C2489      C2490   1.397       .  A
C2489      S2495   1.700       .  A
C2490      C2491   1.397   1_556  A
C2490      H2501   1.083       .  S
C2491      C2500   1.364       .  A
C2491      C2492   1.389   1_554  A
C2492      C2493   1.401       .  A
C2492      S2498   1.708   1_556  A
C2493      C2494   1.402       .  A
C2493      H2502   1.083       .  S
C2494      C2497   1.370       .  A
S2495      C2496   1.722       .  A
C2496      C2497   1.386       .  A
C2497      H2503   1.083       .  S
S2498      C2499   1.719       .  A
C2499      C2500   1.379       .  A
C2500      H2504   1.083       .  S
C2505      C2510   1.388       .  A
C2505      C2506   1.399       .  A
C2505      S2511   1.703       .  A
C2506      C2507   1.399       .  A
C2506      H2517   1.083       .  S
C2507      C2516   1.366       .  A
C2507      C2508   1.389       .  A
C2508      C2509   1.397       .  A
C2508      S2514   1.702       .  A
C2509      C2510   1.398       .  A
C2509      H2518   1.083       .  S
C2510      C2513   1.365       .  A
S2511      C2512   1.721       .  A
C2512      C2513   1.383       .  A
C2513      H2519   1.083       .  S
S2514      C2515   1.717       .  A
C2515      C2516   1.380       .  A
C2516      H2520   1.083       .  S
C2521      C2526   1.387       .  A
C2521      C2522   1.404       .  A
C2521      S2527   1.706       .  A
C2522      C2523   1.404       .  A
C2522      H2533   1.083       .  S
C2523      C2532   1.375       .  A
C2523      C2524   1.384       .  A
C2524      C2525   1.405       .  A
C2524      S2530   1.704       .  A
C2525      C2526   1.404       .  A
C2525      H2534   1.083       .  S
C2526      C2529   1.376       .  A
S2527      C2528   1.725       .  A
C2528      C2529   1.389       .  A
C2529      H2535   1.083       .  S
S2530      C2531   1.731       .  A
C2531      C2532   1.392       .  A
C2532      H2536   1.082       .  S
C2537      C2542   1.386       .  A
C2537      C2538   1.408       .  A
C2537      S2543   1.714       .  A
C2538      C2539   1.408       .  A
C2538      H2549   1.083       .  S
C2539      C2548   1.379       .  A
C2539      C2540   1.384       .  A
C2540      C2541   1.402       .  A
C2540      S2546   1.701       .  A
C2541      C2542   1.402       .  A
C2541      H2550   1.083       .  S
C2542      C2545   1.372       .  A
S2543      C2544   1.727       .  A
C2544      C2545   1.388       .  A
C2545      H2551   1.083       .  S
S2546      C2547   1.729       .  A
C2547      C2548   1.395       .  A
C2548      H2552   1.082       .  S
C2553      C2558   1.386       .  A
C2553      C2554   1.406       .  A
C2553      S2559   1.713       .  A
C2554      C2555   1.406       .  A
C2554      H2565   1.083       .  S
C2555      C2564   1.375       .  A
C2555      C2556   1.387       .  A
C2556      C2557   1.404       .  A
C2556      S2562   1.710       .  A
C2557      C2558   1.404       .  A
C2557      H2566   1.083       .  S
C2558      C2561   1.373       .  A
S2559      C2560   1.726       .  A
C2560      C2561   1.389       .  A
C2561      H2567   1.081       .  S
S2562      C2563   1.723       .  A
C2563      C2564   1.389       .  A
C2564      H2568   1.083       .  S
C2569      C2574   1.387       .  A
C2569      C2570   1.405       .  A
C2569      S2575   1.712       .  A
C2570      C2571   1.405       .  A
C2570      H2581   1.083       .  S
C2571      C2580   1.374       .  A
C2571      C2572   1.386       .  A
C2572      C2573   1.404       .  A
C2572      S2578   1.710       .  A
C2573      C2574   1.404       .  A
C2573      H2582   1.083       .  S
C2574      C2577   1.374       .  A
S2575      C2576   1.725       .  A
C2576      C2577   1.389       .  A
C2577      H2583   1.083       .  S
S2578      C2579   1.723       .  A
C2579      C2580   1.389       .  A
C2580      H2584   1.082       .  S
C2585      C2590   1.387       .  A
C2585      C2586   1.406       .  A
C2585      S2591   1.710       .  A
C2586      C2587   1.406       .  A
C2586      H2597   1.083       .  S
C2587      C2596   1.376       .  A
C2587      C2588   1.385       .  A
C2588      C2589   1.399       .  A
C2588      S2594   1.698       .  A
C2589      C2590   1.399       .  A
C2589      H2598   1.083       .  S
C2590      C2593   1.370       .  A
S2591      C2592   1.727       .  A
C2592      C2593   1.386       .  A
C2593      H2599   1.083       .  S
S2594      C2595   1.727       .  A
C2595      C2596   1.392       .  A
C2596      H2600   1.083       .  S
C2601      C2606   1.386       .  A
C2601      C2602   1.405       .  A
C2601      S2607   1.711       .  A
C2602      C2603   1.406       .  A
C2602      H2613   1.083       .  S
C2603      C2612   1.375       .  A
C2603      C2604   1.387       .  A
C2604      C2605   1.404       .  A
C2604      S2610   1.710       .  A
C2605      C2606   1.404       .  A
C2605      H2614   1.083       .  S
C2606      C2609   1.374       .  A
S2607      C2608   1.726       .  A
C2608      C2609   1.389       .  A
C2609      H2615   1.083       .  S
S2610      C2611   1.722       .  A
C2611      C2612   1.388       .  A
C2612      H2616   1.083       .  S
C2617      C2622   1.386       .  A
C2617      C2618   1.404       .  A
C2617      S2623   1.710       .  A
C2618      C2619   1.405       .  A
C2618      H2629   1.083       .  S
C2619      C2628   1.373       .  A
C2619      C2620   1.384       .  A
C2620      C2621   1.405       .  A
C2620      S2626   1.710       .  A
C2621      C2622   1.406       .  A
C2621      H2630   1.083       .  S
C2622      C2625   1.376       .  A
S2623      C2624   1.726       .  A
C2624      C2625   1.390       .  A
C2625      H2631   1.083       .  S
S2626      C2627   1.728       .  A
C2627      C2628   1.393       .  A
C2628      H2632   1.079       .  S
C2633      C2638   1.387       .  A
C2633      C2634   1.400       .  A
C2633      S2639   1.706       .  A
C2634      C2635   1.402       .  A
C2634      H2645   1.083       .  S
C2635      C2644   1.369       .  A
C2635      C2636   1.383       .  A
C2636      C2637   1.407       .  A
C2636      S2642   1.712       .  A
C2637      C2638   1.408       .  A
C2637      H2646   1.083       .  S
C2638      C2641   1.376       .  A
S2639      C2640   1.723       .  A
C2640      C2641   1.391       .  A
C2641      H2647   1.083       .  S
S2642      C2643   1.730       .  A
C2643      C2644   1.391       .  A
C2644      H2648   1.077       .  S
C2649      C2654   1.387       .  A
C2649      C2650   1.404       .  A
C2649      S2655   1.711       .  A
C2650      C2651   1.405       .  A
C2650      H2661   1.083       .  S
C2651      C2660   1.373       .  A
C2651      C2652   1.387       .  A
C2652      C2653   1.402       .  A
C2652      S2658   1.709       .  A
C2653      C2654   1.403       .  A
C2653      H2662   1.083       .  S
C2654      C2657   1.371       .  A
S2655      C2656   1.724       .  A
C2656      C2657   1.385       .  A
C2657      H2663   1.083       .  S
S2658      C2659   1.723       .  A
C2659      C2660   1.389       .  A
C2660      H2664   1.083       .  S
C2665      C2670   1.387       .  A
C2665      C2666   1.405       .  A
C2665      S2671   1.711       .  A
C2666      C2667   1.406       .  A
C2666      H2677   1.083       .  S
C2667      C2676   1.375       .  A
C2667      C2668   1.387       .  A
C2668      C2669   1.403       .  A
C2668      S2674   1.710       .  A
C2669      C2670   1.404       .  A
C2669      H2678   1.083       .  S
C2670      C2673   1.374       .  A
S2671      C2672   1.725       .  A
C2672      C2673   1.387       .  A
C2673      H2679   1.083       .  S
S2674      C2675   1.723       .  A
C2675      C2676   1.388       .  A
C2676      H2680   1.083       .  S
C2681      C2686   1.387       .  A
C2681      C2682   1.404       .  A
C2681      S2687   1.708       .  A
C2682      C2683   1.403       .  A
C2682      H2693   1.083       .  S
C2683      C2692   1.374       .  A
C2683      C2684   1.387       .  A
C2684      C2685   1.404       .  A
C2684      S2690   1.710       .  A
C2685      C2686   1.404       .  A
C2685      H2694   1.083       .  S
C2686      C2689   1.375       .  A
S2687      C2688   1.724       .  A
C2688      C2689   1.388       .  A
C2689      H2695   1.083       .  S
S2690      C2691   1.721       .  A
C2691      C2692   1.386       .  A
C2692      H2696   1.083       .  S
C2697      C2702   1.387       .  A
C2697      C2698   1.405       .  A
C2697      S2703   1.708       .  A
C2698      C2699   1.405       .  A
C2698      H2709   1.083       .  S
C2699      C2708   1.375       .  A
C2699      C2700   1.385       .  A
C2700      C2701   1.400       .  A
C2700      S2706   1.699       .  A
C2701      C2702   1.400       .  A
C2701      H2710   1.083       .  S
C2702      C2705   1.371       .  A
S2703      C2704   1.725       .  A
C2704      C2705   1.385       .  A
C2705      H2711   1.083       .  S
S2706      C2707   1.726       .  A
C2707      C2708   1.390       .  A
C2708      H2712   1.083       .  S
C2713      C2718   1.387       .  A
C2713      C2714   1.404       .  A
C2713      S2719   1.710       .  A
C2714      C2715   1.404       .  A
C2714      H2725   1.083       .  S
C2715      C2724   1.374       .  A
C2715      C2716   1.385       .  A
C2716      C2717   1.405       .  A
C2716      S2722   1.709       .  A
C2717      C2718   1.405       .  A
C2717      H2726   1.083       .  S
C2718      C2721   1.375       .  A
S2719      C2720   1.724       .  A
C2720      C2721   1.389       .  A
C2721      H2727   1.083       .  S
S2722      C2723   1.728       .  A
C2723      C2724   1.390       .  A
C2724      H2728   1.083       .  S
C2729      C2734   1.387       .  A
C2729      C2730   1.404       .  A
C2729      S2735   1.709       .  A
C2730      C2731   1.404       .  A
C2730      H2741   1.083       .  S
C2731      C2740   1.375       .  A
C2731      C2732   1.385       .  A
C2732      C2733   1.404       .  A
C2732      S2738   1.707       .  A
C2733      C2734   1.404       .  A
C2733      H2742   1.083       .  S
C2734      C2737   1.375       .  A
S2735      C2736   1.725       .  A
C2736      C2737   1.389       .  A
C2737      H2743   1.083       .  S
S2738      C2739   1.729       .  A
C2739      C2740   1.390       .  A
C2740      H2744   1.083       .  S
C2745      C2750   1.387       .  A
C2745      C2746   1.405       .  A
C2745      S2751   1.711       .  A
C2746      C2747   1.405       .  A
C2746      H2757   1.083       .  S
C2747      C2756   1.374       .  A
C2747      C2748   1.386       .  A
C2748      C2749   1.405       .  A
C2748      S2754   1.710       .  A
C2749      C2750   1.406       .  A
C2749      H2758   1.083       .  S
C2750      C2753   1.376       .  A
S2751      C2752   1.725       .  A
C2752      C2753   1.389       .  A
C2753      H2759   1.083       .  S
S2754      C2755   1.724       .  A
C2755      C2756   1.388       .  A
C2756      H2760   1.082       .  S
C2761      C2766   1.386       .  A
C2761      C2762   1.404       .  A
C2761      S2767   1.711       .  A
C2762      C2763   1.405       .  A
C2762      H2773   1.083       .  S
C2763      C2772   1.373       .  A
C2763      C2764   1.384       .  A
C2764      C2765   1.405       .  A
C2764      S2770   1.710       .  A
C2765      C2766   1.406       .  A
C2765      H2774   1.083       .  S
C2766      C2769   1.375       .  A
S2767      C2768   1.725       .  A
C2768      C2769   1.390       .  A
C2769      H2775   1.083       .  S
S2770      C2771   1.729       .  A
C2771      C2772   1.392       .  A
C2772      H2776   1.083       .  S
C2777      C2782   1.387       .  A
C2777      C2778   1.401       .  A
C2777      S2783   1.706       .  A
C2778      C2779   1.402       .  A
C2778      H2789   1.083       .  S
C2779      C2788   1.371       .  A
C2779      C2780   1.386       .  A
C2780      C2781   1.405       .  A
C2780      S2786   1.710       .  A
C2781      C2782   1.406       .  A
C2781      H2790   1.083       .  S
C2782      C2785   1.375       .  A
S2783      C2784   1.722       .  A
C2784      C2785   1.389       .  A
C2785      H2791   1.083       .  S
S2786      C2787   1.725       .  A
C2787      C2788   1.386       .  A
C2788      H2792   1.083       .  S
C2793      C2798   1.387       .  A
C2793      C2794   1.402       .  A
C2793      S2799   1.707       .  A
C2794      C2795   1.402       .  A
C2794      H2805   1.083       .  S
C2795      C2804   1.370       .  A
C2795      C2796   1.386       .  A
C2796      C2797   1.405       .  A
C2796      S2802   1.712       .  A
C2797      C2798   1.406       .  A
C2797      H2806   1.083       .  S
C2798      C2801   1.376       .  A
S2799      C2800   1.724       .  A
C2800      C2801   1.390       .  A
C2801      H2807   1.083       .  S
S2802      C2803   1.724       .  A
C2803      C2804   1.386       .  A
C2804      H2808   1.083       .  S
C2809      C2814   1.386       .  A
C2809      C2810   1.408       .  A
C2809      S2815   1.714       .  A
C2810      C2811   1.408       .  A
C2810      H2821   1.083       .  S
C2811      C2820   1.379       .  A
C2811      C2812   1.387       .  A
C2812      C2813   1.403       .  A
C2812      S2818   1.708       .  A
C2813      C2814   1.403       .  A
C2813      H2822   1.083       .  S
C2814      C2817   1.374       .  A
S2815      C2816   1.725       .  A
C2816      C2817   1.387       .  A
C2817      H2823   1.082       .  S
S2818      C2819   1.724       .  A
C2819      C2820   1.391       .  A
C2820      H2824   1.083       .  S
C2825      C2830   1.387       .  A
C2825      C2826   1.405       .  A
C2825      S2831   1.711       .  A
C2826      C2827   1.406       .  A
C2826      H2837   1.083       .  S
C2827      C2836   1.375       .  A
C2827      C2828   1.386       .  A
C2828      C2829   1.404       .  A
C2828      S2834   1.710       .  A
C2829      C2830   1.405       .  A
C2829      H2838   1.083       .  S
C2830      C2833   1.374       .  A
S2831      C2832   1.723       .  A
C2832      C2833   1.387       .  A
C2833      H2839   1.082       .  S
S2834      C2835   1.725       .  A
C2835      C2836   1.390       .  A
C2836      H2840   1.083       .  S
C2841      C2846   1.386       .  A
C2841      C2842   1.406       .  A
C2841      S2847   1.712       .  A
C2842      C2843   1.406       .  A
C2842      H2853   1.083       .  S
C2843      C2852   1.375       .  A
C2843      C2844   1.386       .  A
C2844      C2845   1.406       .  A
C2844      S2850   1.713       .  A
C2845      C2846   1.406       .  A
C2845      H2854   1.083       .  S
C2846      C2849   1.377       .  A
S2847      C2848   1.726       .  A
C2848      C2849   1.390       .  A
C2849      H2855   1.083       .  S
S2850      C2851   1.724       .  A
C2851      C2852   1.389       .  A
C2852      H2856   1.082       .  S
C2857      C2862   1.386       .  A
C2857      C2858   1.405       .  A
C2857      S2863   1.708       .  A
C2858      C2859   1.405       .  A
C2858      H2869   1.083       .  S
C2859      C2868   1.377       .  A
C2859      C2860   1.387       .  A
C2860      C2861   1.404       .  A
C2860      S2866   1.708       .  A
C2861      C2862   1.404       .  A
C2861      H2870   1.083       .  S
C2862      C2865   1.375       .  A
S2863      C2864   1.728       .  A
C2864      C2865   1.390       .  A
C2865      H2871   1.082       .  S
S2866      C2867   1.725       .  A
C2867      C2868   1.389       .  A
C2868      H2872   1.083       .  S
C2873      C2878   1.387       .  A
C2873      C2874   1.404       .  A
C2873      S2879   1.711       .  A
C2874      C2875   1.405       .  A
C2874      H2885   1.083       .  S
C2875      C2884   1.373       .  A
C2875      C2876   1.385       .  A
C2876      C2877   1.404       .  A
C2876      S2882   1.710       .  A
C2877      C2878   1.405       .  A
C2877      H2886   1.083       .  S
C2878      C2881   1.374       .  A
S2879      C2880   1.724       .  A
C2880      C2881   1.389       .  A
C2881      H2887   1.083       .  S
S2882      C2883   1.727       .  A
C2883      C2884   1.390       .  A
C2884      H2888   1.083       .  S
C2889      C2894   1.386       .  A
C2889      C2890   1.404       .  A
C2889      S2895   1.711       .  A
C2890      C2891   1.405       .  A
C2890      H2901   1.083       .  S
C2891      C2900   1.374       .  A
C2891      C2892   1.384       .  A
C2892      C2893   1.404       .  A
C2892      S2898   1.708       .  A
C2893      C2894   1.405       .  A
C2893      H2902   1.083       .  S
C2894      C2897   1.373       .  A
S2895      C2896   1.725       .  A
C2896      C2897   1.389       .  A
C2897      H2903   1.083       .  S
S2898      C2899   1.729       .  A
C2899      C2900   1.392       .  A
C2900      H2904   1.083       .  S
C2905      C2910   1.386       .  A
C2905      C2906   1.405       .  A
C2905      S2911   1.711       .  A
C2906      C2907   1.406       .  A
C2906      H2917   1.083       .  S
C2907      C2916   1.375       .  A
C2907      C2908   1.383       .  A
C2908      C2909   1.404       .  A
C2908      S2914   1.706       .  A
C2909      C2910   1.404       .  A
C2909      H2918   1.083       .  S
C2910      C2913   1.374       .  A
S2911      C2912   1.726       .  A
C2912      C2913   1.389       .  A
C2913      H2919   1.083       .  S
S2914      C2915   1.731       .  A
C2915      C2916   1.396       .  A
C2916      H2920   1.077       .  S
C2921      C2926   1.386       .  A
C2921      C2922   1.405       .  A
C2921      S2927   1.710       .  A
C2922      C2923   1.406       .  A
C2922      H2933   1.083       .  S
C2923      C2932   1.376       .  A
C2923      C2924   1.384       .  A
C2924      C2925   1.403       .  A
C2924      S2930   1.705       .  A
C2925      C2926   1.404       .  A
C2925      H2934   1.083       .  S
C2926      C2929   1.374       .  A
S2927      C2928   1.727       .  A
C2928      C2929   1.389       .  A
C2929      H2935   1.083       .  S
S2930      C2931   1.729       .  A
C2931      C2932   1.393       .  A
C2932      H2936   1.082       .  S
C2937      C2942   1.387       .  A
C2937      C2938   1.402       .  A
C2937      S2943   1.708       .  A
C2938      C2939   1.402       .  A
C2938      H2949   1.083       .  S
C2939      C2948   1.372       .  A
C2939      C2940   1.387       .  A
C2940      C2941   1.406       .  A
C2940      S2946   1.713       .  A
C2941      C2942   1.407       .  A
C2941      H2950   1.083       .  S
C2942      C2945   1.377       .  A
S2943      C2944   1.724       .  A
C2944      C2945   1.391       .  A
C2945      H2951   1.083       .  S
S2946      C2947   1.723       .  A
C2947      C2948   1.384       .  A
C2948      H2952   1.083       .  S
C2953      C2958   1.387       .  A
C2953      C2954   1.404       .  A
C2953      S2959   1.709       .  A
C2954      C2955   1.405       .  A
C2954      H2965   1.083       .  S
C2955      C2964   1.375       .  A
C2955      C2956   1.384       .  A
C2956      C2957   1.403       .  A
C2956      S2962   1.703       .  A
C2957      C2958   1.403       .  A
C2957      H2966   1.083       .  S
C2958      C2961   1.373       .  A
S2959      C2960   1.725       .  A
C2960      C2961   1.388       .  A
C2961      H2967   1.083       .  S
S2962      C2963   1.729       .  A
C2963      C2964   1.393       .  A
C2964      H2968   1.082       .  S
C2969      C2974   1.387       .  A
C2969      C2970   1.405       .  A
C2969      S2975   1.710       .  A
C2970      C2971   1.405       .  A
C2970      H2981   1.083       .  S
C2971      C2980   1.376       .  A
C2971      C2972   1.387       .  A
C2972      C2973   1.404       .  A
C2972      S2978   1.710       .  A
C2973      C2974   1.405       .  A
C2973      H2982   1.083       .  S
C2974      C2977   1.375       .  A
S2975      C2976   1.725       .  A
C2976      C2977   1.389       .  A
C2977      H2983   1.083       .  S
S2978      C2979   1.722       .  A
C2979      C2980   1.388       .  A
C2980      H2984   1.083       .  S
C2985      C2990   1.387       .  A
C2985      C2986   1.403       .  A
C2985      S2991   1.708       .  A
C2986      C2987   1.403       .  A
C2986      H2997   1.083       .  S
C2987      C2996   1.372       .  A
C2987      C2988   1.387       .  A
C2988      C2989   1.405       .  A
C2988      S2994   1.712       .  A
C2989      C2990   1.405       .  A
C2989      H2998   1.083       .  S
C2990      C2993   1.375       .  A
S2991      C2992   1.724       .  A
C2992      C2993   1.389       .  A
C2993      H2999   1.083       .  S
S2994      C2995   1.722       .  A
C2995      C2996   1.386       .  A
C2996      H3000   1.083       .  S
C3001      C3006   1.387       .  A
C3001      C3002   1.402       .  A
C3001      S3007   1.707       .  A
C3002      C3003   1.402       .  A
C3002      H3013   1.083       .  S
C3003      C3012   1.372       .  A
C3003      C3004   1.387       .  A
C3004      C3005   1.405       .  A
C3004      S3010   1.712       .  A
C3005      C3006   1.406       .  A
C3005      H3014   1.083       .  S
C3006      C3009   1.375       .  A
S3007      C3008   1.723       .  A
C3008      C3009   1.389       .  A
C3009      H3015   1.083       .  S
S3010      C3011   1.723       .  A
C3011      C3012   1.384       .  A
C3012      H3016   1.083       .  S
C3017      C3022   1.387       .  A
C3017      C3018   1.406       .  A
C3017      S3023   1.710       .  A
C3018      C3019   1.405       .  A
C3018      H3029   1.083       .  S
C3019      C3028   1.376       .  A
C3019      C3020   1.387       .  A
C3020      C3021   1.405       .  A
C3020      S3026   1.710       .  A
C3021      C3022   1.405       .  A
C3021      H3030   1.083       .  S
C3022      C3025   1.376       .  A
S3023      C3024   1.726       .  A
C3024      C3025   1.389       .  A
C3025      H3031   1.083       .  S
S3026      C3027   1.723       .  A
C3027      C3028   1.389       .  A
C3028      H3032   1.083       .  S
C3033      C3038   1.387       .  A
C3033      C3034   1.407       .  A
C3033      S3039   1.713       .  A
C3034      C3035   1.407       .  A
C3034      H3045   1.083       .  S
C3035      C3044   1.378       .  A
C3035      C3036   1.386       .  A
C3036      C3037   1.405       .  A
C3036      S3042   1.711       .  A
C3037      C3038   1.405       .  A
C3037      H3046   1.083       .  S
C3038      C3041   1.376       .  A
S3039      C3040   1.723       .  A
C3040      C3041   1.387       .  A
C3041      H3047   1.083       .  S
S3042      C3043   1.726       .  A
C3043      C3044   1.392       .  A
C3044      H3048   1.083       .  S
C3049      C3054   1.386       .  A
C3049      C3050   1.406       .  A
C3049      S3055   1.710       .  A
C3050      C3051   1.406       .  A
C3050      H3061   1.083       .  S
C3051      C3060   1.376       .  A
C3051      C3052   1.385       .  A
C3052      C3053   1.405       .  A
C3052      S3058   1.708       .  A
C3053      C3054   1.405       .  A
C3053      H3062   1.083       .  S
C3054      C3057   1.377       .  A
S3055      C3056   1.726       .  A
C3056      C3057   1.390       .  A
C3057      H3063   1.083       .  S
S3058      C3059   1.729       .  A
C3059      C3060   1.393       .  A
C3060      H3064   1.081       .  S
C3065      C3070   1.387       .  A
C3065      C3066   1.402       .  A
C3065      S3071   1.708       .  A
C3066      C3067   1.403       .  A
C3066      H3077   1.083       .  S
C3067      C3076   1.371       .  A
C3067      C3068   1.384       .  A
C3068      C3069   1.408       .  A
C3068      S3074   1.714       .  A
C3069      C3070   1.409       .  A
C3069      H3078   1.083       .  S
C3070      C3073   1.379       .  A
S3071      C3072   1.723       .  A
C3072      C3073   1.392       .  A
C3073      H3079   1.083       .  S
S3074      C3075   1.729       .  A
C3075      C3076   1.390       .  A
C3076      H3080   1.081       .  S
C3081      C3086   1.387       .  A
C3081      C3082   1.405       .  A
C3081      S3087   1.711       .  A
C3082      C3083   1.405       .  A
C3082      H3093   1.083       .  S
C3083      C3092   1.375       .  A
C3083      C3084   1.386       .  A
C3084      C3085   1.403       .  A
C3084      S3090   1.705       .  A
C3085      C3086   1.403       .  A
C3085      H3094   1.083       .  S
C3086      C3089   1.374       .  A
S3087      C3088   1.725       .  A
C3088      C3089   1.388       .  A
C3089      H3095   1.083       .  S
S3090      C3091   1.728       .  A
C3091      C3092   1.389       .  A
C3092      H3096   1.083       .  S
C3097      C3102   1.387       .  A
C3097      C3098   1.405       .  A
C3097      S3103   1.710       .  A
C3098      C3099   1.405       .  A
C3098      H3109   1.083       .  S
C3099      C3108   1.375       .  A
C3099      C3100   1.387       .  A
C3100      C3101   1.404       .  A
C3100      S3106   1.709       .  A
C3101      C3102   1.404       .  A
C3101      H3110   1.083       .  S
C3102      C3105   1.375       .  A
S3103      C3104   1.725       .  A
C3104      C3105   1.388       .  A
C3105      H3111   1.083       .  S
S3106      C3107   1.722       .  A
C3107      C3108   1.388       .  A
C3108      H3112   1.083       .  S
C3113      C3118   1.387       .  A
C3113      C3114   1.401       .  A
C3113      S3119   1.706       .  A
C3114      C3115   1.402       .  A
C3114      H3125   1.083       .  S
C3115      C3124   1.370       .  A
C3115      C3116   1.387       .  A
C3116      C3117   1.404       .  A
C3116      S3122   1.711       .  A
C3117      C3118   1.405       .  A
C3117      H3126   1.083       .  S
C3118      C3121   1.375       .  A
S3119      C3120   1.724       .  A
C3120      C3121   1.388       .  A
C3121      H3127   1.083       .  S
S3122      C3123   1.723       .  A
C3123      C3124   1.385       .  A
C3124      H3128   1.083       .  S
C3129      C3134   1.387       .  A
C3129      C3130   1.401       .  A
C3129      S3135   1.705       .  A
C3130      C3131   1.402       .  A
C3130      H3141   1.083       .  S
C3131      C3140   1.370       .  A
C3131      C3132   1.387       .  A
C3132      C3133   1.402       .  A
C3132      S3138   1.707       .  A
C3133      C3134   1.403       .  A
C3133      H3142   1.083       .  S
C3134      C3137   1.372       .  A
S3135      C3136   1.723       .  A
C3136      C3137   1.387       .  A
C3137      H3143   1.083       .  S
S3138      C3139   1.722       .  A
C3139      C3140   1.385       .  A
C3140      H3144   1.083       .  S
C3145      C3150   1.386       .  A
C3145      C3146   1.406       .  A
C3145      S3151   1.710       .  A
C3146      C3147   1.406       .  A
C3146      H3157   1.083       .  S
C3147      C3156   1.377       .  A
C3147      C3148   1.383       .  A
C3148      C3149   1.403       .  A
C3148      S3154   1.702       .  A
C3149      C3150   1.403       .  A
C3149      H3158   1.083       .  S
C3150      C3153   1.374       .  A
S3151      C3152   1.727       .  A
C3152      C3153   1.388       .  A
C3153      H3159   1.083       .  S
S3154      C3155   1.729       .  A
C3155      C3156   1.395       .  A
C3156      H3160   1.082       .  S
C3161      C3166   1.387       .  A
C3161      C3162   1.406       .  A
C3161      S3167   1.709       .  A
C3162      C3163   1.405       .  A
C3162      H3173   1.083       .  S
C3163      C3172   1.378       .  A
C3163      C3164   1.384       .  A
C3164      C3165   1.403       .  A
C3164      S3170   1.701       .  A
C3165      C3166   1.402       .  A
C3165      H3174   1.083       .  S
C3166      C3169   1.374       .  A
S3167      C3168   1.726       .  A
C3168      C3169   1.388       .  A
C3169      H3175   1.083       .  S
S3170      C3171   1.730       .  A
C3171      C3172   1.392       .  A
C3172      H3176   1.082       .  S
C3177      C3182   1.387       .  A
C3177      C3178   1.405       .  A
C3177      S3183   1.709       .  A
C3178      C3179   1.405       .  A
C3178      H3189   1.083       .  S
C3179      C3188   1.376       .  A
C3179      C3180   1.385       .  A
C3180      C3181   1.403       .  A
C3180      S3186   1.703       .  A
C3181      C3182   1.403       .  A
C3181      H3190   1.083       .  S
C3182      C3185   1.374       .  A
S3183      C3184   1.726       .  A
C3184      C3185   1.388       .  A
C3185      H3191   1.083       .  S
S3186      C3187   1.729       .  A
C3187      C3188   1.391       .  A
C3188      H3192   1.083       .  S
