geometry optimzed in LAMMPS
_audit_creation_date              2020-11-30 
_audit_creation_method            'lammps2cif' 
_symmetry_space_group_name_H-M    'P1' 
_symmetry_Int_Tables_number       1 
_symmetry_cell_setting            triclinic 
loop_ 
_symmetry_equiv_pos_as_xyz 
  x,y,z 
_cell_length_a                    25.74185385 
_cell_length_b                    26.05833735068179 
_cell_length_c                    25.69928773130106 
_cell_angle_alpha                 91.38602488749794 
_cell_angle_beta                  91.0335521907293 
_cell_angle_gamma                 90.0733621184868 
loop_ 
_atom_site_label 
_atom_site_type_symbol 
_atom_site_fract_x 
_atom_site_fract_y 
_atom_site_fract_z 
_atom_site_charge 
C1          C  0.01228339  0.67305589  0.51059441    -0.03100
C2          C  0.49908969  0.99374318  0.35378383    -0.03100
C3          C  0.48719933  0.99693760  0.64678133    -0.03100
C4          C  0.84269926  0.52161222  0.03249541    -0.03100
C5          C  0.14525543  0.50679102  0.98732586    -0.03100
C6          C  0.98981570  0.33211404  0.47384854    -0.03100
In7        In  0.87236000  0.78299136  0.00120111     1.36900
C8          C  0.96709089  0.82672168  0.00204350     0.76900
O9          O  0.81963905  0.75467336  0.93525889    -0.61500
O10         O  0.84128590  0.83348728  0.93786101    -0.52400
C11         C  0.92049312  0.69519536  0.99313462     0.69600
O12         O  0.92997783  0.72764850  0.02890360    -0.47300
C13         C  0.81412051  0.78369208  0.08903053     0.74300
O14         O  0.94214718  0.82026731  0.04313957    -0.59100
O15         O  0.82794326  0.82354506  0.06544151    -0.49200
O16         O  0.93987208  0.82085636  0.96110654    -0.55600
C17         C  0.82027587  0.79667565  0.91191902     0.84500
O18         O  0.88680417  0.70826641  0.96004168    -0.57500
O19         O  0.82494072  0.74284479  0.06456504    -0.60800
In20       In  0.11819463  0.77943404  0.00135117     1.36900
C21         C  0.02460304  0.82555030  0.00119561     0.76900
O22         O  0.16817946  0.74084440  0.06342086    -0.61500
O23         O  0.15591066  0.82153131  0.06871533    -0.52400
C24         C  0.06886173  0.69334668  0.00685549     0.69600
O25         O  0.06498948  0.72111010  0.96763586    -0.47300
C26         C  0.17595668  0.78151174  0.91419522     0.74300
O27         O  0.05265947  0.82341559  0.04178306    -0.59100
O28         O  0.16325415  0.82132099  0.94034847    -0.49200
O29         O  0.04833880  0.81406331  0.96023716    -0.55600
C30         C  0.17219052  0.78132543  0.09104045     0.84500
O31         O  0.09585587  0.71129527  0.04399870    -0.57500
O32         O  0.16528515  0.74028744  0.93625905    -0.60800
In33       In  0.72179976  0.00524032  0.87278278     1.36900
C34         C  0.72368763  0.00383744  0.97945206     0.76900
O35         O  0.71208685  0.92365795  0.84249909    -0.61500
O36         O  0.78513238  0.95837382  0.83149911    -0.52400
C37         C  0.63316352  0.99989033  0.82231492     0.69600
O38         O  0.65183297  0.04170802  0.83991638    -0.47300
C39         C  0.75330462  0.09322667  0.82687216     0.74300
O40         O  0.68360428  0.01220867  0.95251581    -0.59100
O41         O  0.70699412  0.08386977  0.83759218    -0.49200
O42         O  0.76348395  0.99747149  0.95240900    -0.55600
C43         C  0.75683231  0.91895108  0.82438156     0.84500
O44         O  0.65564542  0.96012753  0.83820835    -0.57500
O45         O  0.78438591  0.05825445  0.84077261    -0.60800
In46       In  0.72316890  0.00244787  0.14243332     1.36900
C47         C  0.72361720  0.00179805  0.03728966     0.76900
O48         O  0.71645760  0.08725214  0.14956892    -0.61500
O49         O  0.78790372  0.05277131  0.17361297    -0.52400
C50         C  0.65664135  0.02434951  0.21389803     0.69600
O51         O  0.64259986  0.02072569  0.16622081    -0.47300
C52         C  0.74416788  0.90827342  0.17662648     0.74300
O53         O  0.68237836  0.00303913  0.06332014    -0.59100
O54         O  0.77840534  0.94223663  0.16965157    -0.49200
O55         O  0.76460013  0.99898196  0.06486233    -0.55600
C56         C  0.76007271  0.09279373  0.17173291     0.84500
O57         O  0.70339630  0.01357047  0.22377331    -0.57500
O58         O  0.69865440  0.92141531  0.16350342    -0.60800
C59         C  0.76225045  0.77929263  0.77081903     0.85800
C60         C  0.77114688  0.76716733  0.82951857    -0.54400
C61         C  0.80315956  0.80127662  0.85656685     0.08800
C62         C  0.82384996  0.84453638  0.82334034     0.19700
C63         C  0.74306986  0.83593884  0.77333597    -0.55100
C64         C  0.77487791  0.86942432  0.80148545     0.08900
C65         C  0.81916914  0.78390594  0.75009431    -0.54700
C66         C  0.85107749  0.81843727  0.77711374     0.09400
H67         H  0.75336461  0.73502534  0.84846330     0.14000
H68         H  0.84927531  0.87210807  0.84552120    -0.00300
H69         H  0.70563609  0.84796142  0.75799058     0.14300
H70         H  0.83298258  0.76210883  0.71664824     0.14000
C71         C  0.72375200  0.73914179  0.73814690     0.85800
C72         C  0.73401306  0.73630152  0.67837837    -0.54400
C73         C  0.70271907  0.70228590  0.65063130     0.08800
C74         C  0.66547864  0.67296046  0.68401886     0.19700
C75         C  0.66334082  0.74979920  0.73932004    -0.55100
C76         C  0.63375292  0.71417545  0.71064492     0.08900
C77         C  0.72718520  0.68185188  0.75548686    -0.54700
C78         C  0.69576154  0.64808578  0.72731097     0.09400
H79         H  0.76250003  0.75979355  0.65943006     0.14000
H80         H  0.64200703  0.64435192  0.66103481    -0.00300
H81         H  0.64594844  0.78267521  0.75884782     0.14300
H82         H  0.74945260  0.66950665  0.78909636     0.14000
In83       In  0.00098598  0.86987370  0.72977647     1.36900
C84         C  0.99966001  0.97491985  0.72854560     0.76900
O85         O  0.92818226  0.81702194  0.72210521    -0.61500
O86         O  0.93350328  0.86531993  0.78795691    -0.52400
C87         C  0.01688742  0.85039829  0.63093702     0.69600
O88         O  0.05215243  0.86953655  0.66020043    -0.47300
C89         C  0.08911620  0.82132072  0.76604377     0.74300
O90         O  0.98950601  0.94646228  0.68954630    -0.59100
O91         O  0.06886398  0.86020231  0.78776309    -0.49200
O92         O  0.00994638  0.95012729  0.76899832    -0.55600
C93         C  0.90582553  0.83323661  0.76233099     0.84500
O94         O  0.97277587  0.84668175  0.65132921    -0.57500
O95         O  0.06121777  0.80324664  0.72941755    -0.60800
In96       In  0.99436913  0.13618047  0.72108295     1.36900
C97         C  0.99894777  0.03204561  0.72634970     0.76900
O98         O  0.07612318  0.16158485  0.69773764    -0.61500
O99         O  0.05895274  0.16275506  0.77765627    -0.52400
C100        C  0.97401334  0.19163032  0.63922487     0.69600
O101        O  0.97823124  0.21125020  0.68459617    -0.47300
C102        C  0.89990849  0.16363926  0.75549208     0.74300
O103        O  0.99799631  0.05578430  0.68411085    -0.59100
O104        O  0.90701921  0.14027035  0.71289409    -0.49200
O105        O  0.99840097  0.06133888  0.76612449    -0.55600
C106        C  0.09281147  0.17011171  0.74345951     0.84500
O107        O  0.98241053  0.14371753  0.63613592    -0.57500
O108        O  0.94077371  0.16963092  0.78330245    -0.60800
C109        C  0.23648417  0.21838788  0.21505208     0.85800
C110        C  0.18066435  0.20525311  0.23442312    -0.54400
C111        C  0.15343557  0.16963965  0.20373005     0.08800
C112        C  0.18304178  0.15086553  0.15653258     0.19700
C113        C  0.26186152  0.16407520  0.20892280    -0.55100
C114        C  0.23366562  0.12973782  0.17797946     0.08900
C115        C  0.22667041  0.23361355  0.15696184    -0.54700
C116        C  0.19904772  0.19801683  0.12691356     0.09400
H117        H  0.16436570  0.22176941  0.26964713     0.14000
H118        H  0.16046348  0.12242337  0.13239065    -0.00300
H119        H  0.29836071  0.15332800  0.22726509     0.14300
H120        H  0.24095255  0.26873341  0.14054524     0.14000
C121        C  0.26996550  0.26065547  0.25102616     0.85800
C122        C  0.25969035  0.26181973  0.31137131    -0.54400
C123        C  0.28925418  0.29742690  0.33984541     0.08800
C124        C  0.32490947  0.32866295  0.30668308     0.19700
C125        C  0.26212033  0.31816272  0.23593827    -0.55100
C126        C  0.29153363  0.35293777  0.26513796     0.08900
C127        C  0.33056210  0.25422024  0.24879593    -0.54700
C128        C  0.35841742  0.29020735  0.27798570     0.09400
H129        H  0.23190530  0.23712136  0.32976343     0.14000
H130        H  0.34782309  0.35742760  0.33006095    -0.00300
H131        H  0.23811661  0.33027064  0.20342741     0.14300
H132        H  0.34983640  0.22350751  0.22758396     0.14000
In133      In  0.49483764  0.71634429  0.63177509     1.36900
C134        C  0.49468748  0.67294939  0.53563887     0.76900
O135        O  0.55458479  0.75695473  0.68476920    -0.61500
O136        O  0.55570523  0.67542370  0.67617160    -0.52400
C137        C  0.49013796  0.80103857  0.58358381     0.69600
O138        O  0.53223945  0.78506704  0.60292208    -0.47300
C139        C  0.41072559  0.71030988  0.68856610     0.74300
O140        O  0.45436951  0.67740415  0.56227714    -0.59100
O141        O  0.43670441  0.67144932  0.67376923    -0.49200
O142        O  0.53618625  0.67959078  0.56192332    -0.55600
C143        C  0.57855584  0.71584757  0.69338453     0.84500
O144        O  0.45110989  0.77265733  0.58848105    -0.57500
O145        O  0.43189994  0.75292412  0.68081843    -0.60800
In146      In  0.49303585  0.71503348  0.38217710     1.36900
C147        C  0.49258642  0.67380030  0.47776260     0.76900
O148        O  0.42923437  0.74794785  0.32991657    -0.61500
O149        O  0.42966662  0.66793781  0.34360884    -0.52400
C150        C  0.49980402  0.80391759  0.42765602     0.69600
O151        O  0.53484500  0.77080001  0.43218832    -0.47300
C152        C  0.57793886  0.71085427  0.32300090     0.74300
O153        O  0.45162391  0.68529168  0.45306211    -0.59100
O154        O  0.55380702  0.67158169  0.33801873    -0.49200
O155        O  0.53255433  0.67419017  0.45020253    -0.55600
C156        C  0.40558735  0.70579238  0.32435841     0.84500
O157        O  0.45950120  0.79007449  0.40263203    -0.57500
O158        O  0.55494625  0.75249502  0.33238018    -0.60800
C159        C  0.22687769  0.76287746  0.23460597     0.85800
C160        C  0.17055131  0.77216609  0.25469639    -0.54400
C161        C  0.14108147  0.80575822  0.22618524     0.08800
C162        C  0.16892549  0.82735090  0.18011457     0.19700
C163        C  0.21717353  0.74729755  0.17522319    -0.55100
C164        C  0.18742325  0.78210545  0.14743043     0.08900
C165        C  0.24911024  0.81865552  0.22992612    -0.54700
C166        C  0.21872265  0.85111238  0.20051421     0.09400
H167        H  0.15451115  0.75333122  0.28791617     0.14000
H168        H  0.14436093  0.85497003  0.15839076    -0.00300
H169        H  0.23387493  0.71375798  0.15628814     0.14300
H170        H  0.28696707  0.83078284  0.24451974     0.14000
C171        C  0.26229382  0.72309393  0.27047618     0.85800
C172        C  0.32239223  0.73523619  0.27514553    -0.54400
C173        C  0.35080829  0.70117460  0.30471246     0.08800
C174        C  0.31844596  0.65845781  0.32606877     0.19700
C175        C  0.26122067  0.66576256  0.25065118    -0.55100
C176        C  0.29157169  0.63299304  0.27937722     0.08900
C177        C  0.24679244  0.71863494  0.32953991    -0.54700
C178        C  0.27670286  0.68471830  0.35788987     0.09400
H179        H  0.34097961  0.76785805  0.25800626     0.14000
H180        H  0.34144945  0.63071218  0.34920370    -0.00300
H181        H  0.24123087  0.65253898  0.21538117     0.14300
H182        H  0.21599275  0.74049103  0.34771038     0.14000
In183      In  0.99064686  0.85480459  0.26108297     1.36900
C184        C  0.99633563  0.95902802  0.25780358     0.76900
O185        O  0.07386818  0.83565535  0.28366602    -0.61500
O186        O  0.05197606  0.82861750  0.20365462    -0.52400
C187        C  0.98733219  0.78038717  0.32592383     0.69600
O188        O  0.99252555  0.82698896  0.34145904    -0.47300
C189        C  0.89176294  0.83095462  0.23628076     0.74300
O190        O  0.99298222  0.93506954  0.30000571    -0.59100
O191        O  0.92768679  0.82995142  0.20291591    -0.49200
O192        O  0.99678138  0.92982795  0.21781776    -0.55600
C193        C  0.08732931  0.82298529  0.23825494     0.84500
O194        O  0.98276462  0.77234677  0.27734778    -0.57500
O195        O  0.90570402  0.84802984  0.28072863    -0.60800
In196      In  0.00637490  0.12055800  0.24929611     1.36900
C197        C  0.99944266  0.01636646  0.25493744     0.76900
O198        O  0.92745550  0.15476214  0.27585937    -0.61500
O199        O  0.93952231  0.14608499  0.19532739    -0.52400
C200        C  0.02974535  0.19277187  0.31486006     0.69600
O201        O  0.02328644  0.14729568  0.33074232    -0.47300
C202        C  0.10200011  0.14655179  0.21636319     0.74300
O203        O  0.99928903  0.04615063  0.29454285    -0.59100
O204        O  0.06191928  0.14806695  0.18671240    -0.49200
O205        O  0.00250662  0.03974021  0.21245610    -0.55600
C206        C  0.90953138  0.16262650  0.23078627     0.84500
O207        O  0.02372409  0.19916460  0.26679493    -0.57500
O208        O  0.09432322  0.12465819  0.25874794    -0.60800
In209      In  0.35159015  0.49411549  0.22324461     1.36900
C210        C  0.45756191  0.48688490  0.22769567     0.76900
O211        O  0.28347826  0.55043123  0.23362742    -0.61500
O212        O  0.35389551  0.56495260  0.27456755    -0.52400
C213        C  0.32278842  0.50920033  0.12813211     0.69600
O214        O  0.33421765  0.54655904  0.15841548    -0.47300
C215        C  0.30481741  0.40627333  0.25134562     0.74300
O216        O  0.43133887  0.48616986  0.18590622    -0.59100
O217        O  0.32549868  0.43791017  0.28350264    -0.49200
O218        O  0.42989192  0.49010720  0.26755540    -0.55600
C219        C  0.30919815  0.58107037  0.26254781     0.84500
O220        O  0.33528134  0.46545685  0.14420302    -0.57500
O221        O  0.30432649  0.42130128  0.20554446    -0.60800
In222      In  0.62131355  0.49574491  0.22852178     1.36900
C223        C  0.51551165  0.48643611  0.22926109     0.76900
O224        O  0.66633960  0.42127384  0.21170635    -0.61500
O225        O  0.65565842  0.44289408  0.29042324    -0.52400
C226        C  0.67149170  0.51247839  0.14713164     0.69600
O227        O  0.63771891  0.54443052  0.16150635    -0.47300
C228        C  0.66498832  0.58680547  0.26055956     0.74300
O229        O  0.54244221  0.47752744  0.18969148    -0.59100
O230        O  0.67034269  0.54611810  0.28617849    -0.49200
O231        O  0.54251621  0.49716307  0.26946329    -0.55600
C232        C  0.67492005  0.41040253  0.25848860     0.84500
O233        O  0.66654919  0.46730484  0.16279410    -0.57500
O234        O  0.63434776  0.58171439  0.22233242    -0.60800
C235        C  0.75295839  0.76806294  0.22979194     0.85800
C236        C  0.72899089  0.82313513  0.22302480    -0.54400
C237        C  0.75844853  0.85619443  0.19443000     0.08800
C238        C  0.80924859  0.83365320  0.17622251     0.19700
C239        C  0.76458152  0.75144942  0.17111471    -0.55100
C240        C  0.79386317  0.78657858  0.14377843     0.08900
C241        C  0.80897684  0.78022313  0.25189230    -0.54700
C242        C  0.83744127  0.81432772  0.22394729     0.09400
H243        H  0.69228036  0.83554384  0.23872069     0.14000
H244        H  0.83328923  0.86140347  0.15490023    -0.00300
H245        H  0.75073965  0.71619397  0.15257973     0.14300
H246        H  0.82632922  0.76204666  0.28522238     0.14000
C247        C  0.71850368  0.72779446  0.26628837     0.85800
C248        C  0.71481656  0.67051401  0.24563728    -0.54400
C249        C  0.68691007  0.63786863  0.27647264     0.08800
C250        C  0.66511649  0.66372644  0.32432965     0.19700
C251        C  0.65931214  0.74148389  0.27416873    -0.55100
C252        C  0.63228952  0.70741605  0.30420693     0.08900
C253        C  0.73842873  0.72198981  0.32459702    -0.54700
C254        C  0.71002272  0.68874869  0.35412941     0.09400
H255        H  0.72991014  0.65714525  0.20870042     0.14000
H256        H  0.64313406  0.63649065  0.34833909    -0.00300
H257        H  0.63990105  0.77427402  0.25775375     0.14300
H258        H  0.77008013  0.74378912  0.34242100     0.14000
In259      In  0.87690720  0.23242914  0.99754174     1.36900
C260        C  0.97344716  0.20158551  0.97583668     0.76900
O261        O  0.81413683  0.25266990  0.05705817    -0.61500
O262        O  0.85354170  0.18217593  0.06350453    -0.52400
C263        C  0.89936265  0.32083652  0.03941010     0.69600
O264        O  0.92226636  0.28142833  0.05538538    -0.47300
C265        C  0.82654247  0.22136302  0.90516449     0.74300
O266        O  0.95134383  0.23947162  0.95565857    -0.59100
O267        O  0.83963428  0.18394161  0.93307062    -0.49200
O268        O  0.94503400  0.17631113  0.00557627    -0.55600
C269        C  0.82438282  0.21513125  0.08517464     0.84500
O270        O  0.87261654  0.31538520  0.99796710    -0.57500
O271        O  0.83430606  0.26451661  0.92680692    -0.60800
In272      In  0.13016201  0.21739234  0.98193518     1.36900
C273        C  0.02978447  0.19446756  0.97019917     0.76900
O274        O  0.18437275  0.24636228  0.91901022    -0.61500
O275        O  0.15968502  0.16888208  0.91503711    -0.52400
C276        C  0.09614715  0.30765162  0.00585983     0.69600
O277        O  0.09294492  0.27194122  0.03758264    -0.47300
C278        C  0.18250082  0.20289999  0.07126726     0.74300
O279        O  0.05423247  0.22169777  0.93932311    -0.59100
O280        O  0.18654363  0.24380461  0.04649979    -0.49200
O281        O  0.05832044  0.16966770  0.00121405    -0.55600
C282        C  0.18213152  0.20525969  0.89230979     0.84500
O283        O  0.11690494  0.29686111  0.96291457    -0.57500
O284        O  0.15892543  0.16708000  0.04618705    -0.60800
In285      In  0.72898305  0.63826339  0.50825442     1.36900
C286        C  0.71420165  0.53595604  0.49972367     0.76900
O287        O  0.67435406  0.65689749  0.57247001    -0.61500
O288        O  0.73904527  0.70621262  0.56478661    -0.52400
C289        C  0.81778581  0.62810094  0.55571490     0.69600
O290        O  0.77970456  0.60053400  0.56698287    -0.47300
C291        C  0.71765972  0.67611434  0.41053771     0.74300
O292        O  0.75490653  0.55904166  0.48700188    -0.59100
O293        O  0.68020157  0.66349552  0.43888700    -0.49200
O294        O  0.67717733  0.56556240  0.51201722    -0.55600
C295        C  0.70425118  0.69008468  0.59387418     0.84500
O296        O  0.81039419  0.65994647  0.51989889    -0.57500
O297        O  0.76121471  0.67247499  0.43314022    -0.60800
In298      In  0.73251940  0.37823446  0.49218956     1.36900
C299        C  0.71456214  0.47926143  0.50336885     0.76900
O300        O  0.75105682  0.31006341  0.43699688    -0.61500
O301        O  0.67927668  0.34879680  0.42804378    -0.52400
C302        C  0.81147078  0.40354505  0.43799153     0.69600
O303        O  0.81608824  0.38486496  0.48319903    -0.47300
C304        C  0.72437478  0.33344647  0.58747113     0.74300
O305        O  0.75549030  0.45712320  0.51816419    -0.59100
O306        O  0.68650652  0.35089008  0.56108163    -0.49200
O307        O  0.67818240  0.44890586  0.48889722    -0.55600
C308        C  0.71268573  0.31909391  0.40748106     0.84500
O309        O  0.76616254  0.41359350  0.42232957    -0.57500
O310        O  0.76689532  0.33586253  0.56386340    -0.60800
C311        C  0.77043880  0.23125666  0.22769604     0.85800
C312        C  0.77930902  0.24609351  0.16947740    -0.54400
C313        C  0.80844787  0.21130204  0.14071372     0.08800
C314        C  0.82668081  0.16546066  0.17149148     0.19700
C315        C  0.74817920  0.17583840  0.22146505    -0.55100
C316        C  0.77746688  0.14289776  0.19166548     0.08900
C317        C  0.82771623  0.22072522  0.24896712    -0.54700
C318        C  0.85641918  0.18560664  0.21927966     0.09400
H319        H  0.76328851  0.28020087  0.15207962     0.14000
H320        H  0.84918619  0.13712354  0.14804017    -0.00300
H321        H  0.71209265  0.16317709  0.23799706     0.14300
H322        H  0.84350905  0.23827764  0.28452601     0.14000
C323        C  0.73212691  0.27076614  0.26193363     0.85800
C324        C  0.67215484  0.25732466  0.25912615    -0.54400
C325        C  0.64107067  0.29017170  0.28787813     0.08800
C326        C  0.67060605  0.33225873  0.31661135     0.19700
C327        C  0.73159939  0.32892904  0.24608554    -0.55100
C328        C  0.69837778  0.36025265  0.27453937     0.08900
C329        C  0.74345457  0.27348541  0.32230341    -0.54700
C330        C  0.71048459  0.30511253  0.35038826     0.09400
H331        H  0.65537757  0.22559423  0.23661127     0.14000
H332        H  0.64516692  0.35833103  0.33956836    -0.00300
H333        H  0.75180273  0.34319348  0.21275002     0.14300
H334        H  0.77440976  0.25227208  0.34113263     0.14000
In335      In  0.49802491  0.28141506  0.35318316     1.36900
C336        C  0.50714510  0.31596814  0.45304446     0.76900
O337        O  0.56310542  0.24395217  0.30764412    -0.61500
O338        O  0.55889859  0.32555181  0.31295693    -0.52400
C339        C  0.48139744  0.19387139  0.39233117     0.69600
O340        O  0.44604810  0.22702291  0.39104618    -0.47300
C341        C  0.41416941  0.28887830  0.29299924     0.74300
O342        O  0.54560049  0.30367408  0.42590887    -0.59100
O343        O  0.43707791  0.32778942  0.31350068    -0.49200
O344        O  0.46586420  0.32110355  0.42658962    -0.55600
C345        C  0.58513453  0.28612685  0.29983733     0.84500
O346        O  0.52415562  0.20596282  0.37296843    -0.57500
O347        O  0.43921963  0.24762378  0.29562462    -0.60800
In348      In  0.50640728  0.26736813  0.60483945     1.36900
C349        C  0.50830402  0.31189202  0.51075038     0.76900
O350        O  0.44243407  0.22438211  0.64779150    -0.61500
O351        O  0.44783005  0.30530301  0.65511699    -0.52400
C352        C  0.51299606  0.17819605  0.56093369     0.69600
O353        O  0.47253117  0.20493561  0.55581602    -0.47300
C354        C  0.58935844  0.28174689  0.66601596     0.74300
O355        O  0.54858743  0.29834844  0.53517928    -0.59100
O356        O  0.56410085  0.31829918  0.64593248    -0.49200
O357        O  0.46793921  0.31121191  0.53792030    -0.55600
C358        C  0.42215299  0.26517261  0.66467762     0.84500
O359        O  0.55011298  0.19907810  0.58594998    -0.57500
O360        O  0.56885730  0.23817090  0.65945300    -0.60800
C361        C  0.76391002  0.22963454  0.76424357     0.85800
C362        C  0.73949841  0.17512194  0.77430835    -0.54400
C363        C  0.77008787  0.14263050  0.80382706     0.08800
C364        C  0.82214181  0.16557853  0.82016576     0.19700
C365        C  0.77840427  0.24819846  0.82167706    -0.55100
C366        C  0.80811572  0.21437652  0.85010103     0.08900
C367        C  0.81816762  0.21547042  0.74159694    -0.54700
C368        C  0.84776443  0.18254316  0.77069170     0.09400
H369        H  0.70115257  0.16293655  0.76158116     0.14000
H370        H  0.84690677  0.13899668  0.84294804    -0.00300
H371        H  0.76505869  0.28321221  0.84022872     0.14300
H372        H  0.83365640  0.23062817  0.70635440     0.14000
C373        C  0.72873504  0.27063169  0.72814708     0.85800
C374        C  0.72283435  0.32625593  0.75253427    -0.54400
C375        C  0.69297013  0.35941142  0.72387768     0.08800
C376        C  0.67212714  0.33637824  0.67330022     0.19700
C377        C  0.67057619  0.25479077  0.71713025    -0.55100
C378        C  0.64203407  0.28939166  0.68870602     0.08900
C379        C  0.74816266  0.28178148  0.67095321    -0.54700
C380        C  0.71808729  0.31603044  0.64291031     0.09400
H381        H  0.73951650  0.33941576  0.78924990     0.14000
H382        H  0.64835584  0.36419243  0.65104767    -0.00300
H383        H  0.65280302  0.21955644  0.72907809     0.14300
H384        H  0.78075892  0.26315011  0.65262534     0.14000
In385      In  0.26915646  0.99578680  0.86150571     1.36900
C386        C  0.26909125  0.99068407  0.96762343     0.76900
O387        O  0.25423835  0.04038400  0.78625961    -0.61500
O388        O  0.22672655  0.07190053  0.85680218    -0.52400
C389        C  0.36226903  0.00602661  0.82941943     0.69600
O390        O  0.34698623  0.96485892  0.84916116    -0.47300
C391        C  0.23647840  0.90490037  0.81911852     0.74300
O392        O  0.30870742  0.00077278  0.94174728    -0.59100
O393        O  0.20624993  0.93675066  0.84079724    -0.49200
O394        O  0.22851895  0.98513037  0.93969855    -0.55600
C395        C  0.23395532  0.07846491  0.80881837     0.84500
O396        O  0.33484560  0.04502175  0.83908442    -0.57500
O397        O  0.28238961  0.92059816  0.81669964    -0.60800
In398      In  0.27385178  0.98209562  0.13137216     1.36900
C399        C  0.27072422  0.98596171  0.02548201     0.76900
O400        O  0.27827571  0.89767624  0.14861671    -0.61500
O401        O  0.21076986  0.93834116  0.17161423    -0.52400
C402        C  0.35009063  0.96524511  0.19591859     0.69600
O403        O  0.35548489  0.95696815  0.14737290    -0.47300
C404        C  0.24899795  0.07708652  0.16244038     0.74300
O405        O  0.31113386  0.99501138  0.05281632    -0.59100
O406        O  0.21564190  0.04241248  0.15214522    -0.49200
O407        O  0.23220567  0.97281015  0.05189850    -0.55600
C408        C  0.23708803  0.89742781  0.17423110     0.84500
O409        O  0.30863963  0.98726234  0.20899347    -0.57500
O410        O  0.29540565  0.06368603  0.15553625    -0.60800
In411      In  0.63873297  0.50413806  0.77205761     1.36900
C412        C  0.53132318  0.50062498  0.76582662     0.76900
O413        O  0.66404651  0.58737878  0.78897888    -0.61500
O414        O  0.66933936  0.55939565  0.71178976    -0.52400
C415        C  0.69650856  0.50336560  0.85605907     0.69600
O416        O  0.64773931  0.50936886  0.85860737    -0.47300
C417        C  0.67441734  0.41093844  0.74128801     0.74300
O418        O  0.55701080  0.50584005  0.80791656    -0.59100
O419        O  0.67032704  0.44841595  0.71109064    -0.49200
O420        O  0.56016915  0.49847968  0.72661759    -0.55600
C421        C  0.67797627  0.59639219  0.74354546     0.84500
O422        O  0.71465957  0.49683046  0.81118818    -0.57500
O423        O  0.65786228  0.42018938  0.78629533    -0.60800
In424      In  0.36592558  0.48890291  0.75902172     1.36900
C425        C  0.47279387  0.49657643  0.76305247     0.76900
O426        O  0.35225266  0.40413247  0.77422991    -0.61500
O427        O  0.34131511  0.42940501  0.69698745    -0.52400
C428        C  0.29338001  0.48458579  0.82624589     0.69600
O429        O  0.34078865  0.48853045  0.84081257    -0.47300
C430        C  0.32525974  0.58195261  0.73687391     0.74300
O431        O  0.44471745  0.49459140  0.80286566    -0.59100
O432        O  0.33284479  0.54702508  0.70247235    -0.49200
O433        O  0.44651901  0.49425168  0.72093018    -0.55600
C434        C  0.33659225  0.39298078  0.72857990     0.84500
O435        O  0.28414536  0.48098939  0.77800339    -0.57500
O436        O  0.34265391  0.57101171  0.78129307    -0.60800
C437        C  0.23924236  0.21539882  0.75051282     0.85800
C438        C  0.23208064  0.23112712  0.80984762    -0.54400
C439        C  0.19832508  0.20037541  0.83667192     0.08800
C440        C  0.17455726  0.15745244  0.80331965     0.19700
C441        C  0.25434088  0.15703584  0.75423721    -0.55100
C442        C  0.22081838  0.12777352  0.78316711     0.08900
C443        C  0.18160221  0.21282771  0.72920170    -0.54700
C444        C  0.14853590  0.18242042  0.75674879     0.09400
H445        H  0.25266475  0.26234699  0.82965752     0.14000
H446        H  0.14725368  0.13274277  0.82457630    -0.00300
H447        H  0.29055990  0.14136472  0.74014965     0.14300
H448        H  0.16744060  0.23354032  0.69581925     0.14000
C449        C  0.27905353  0.25276614  0.71697267     0.85800
C450        C  0.28526562  0.30912298  0.73988167    -0.54400
C451        C  0.31727152  0.34072574  0.71244780     0.08800
C452        C  0.33899773  0.31542445  0.66446963     0.19700
C453        C  0.26233535  0.26146909  0.65848505    -0.55100
C454        C  0.29434678  0.29382366  0.63176094     0.08900
C455        C  0.33762120  0.23522020  0.71097985    -0.54700
C456        C  0.36803827  0.26913532  0.68357769     0.09400
H457        H  0.26688755  0.32318581  0.77491151     0.14000
H458        H  0.36324345  0.34255206  0.64260841    -0.00300
H459        H  0.22957203  0.24267150  0.63907465     0.14300
H460        H  0.35335767  0.19987417  0.72596194     0.14000
In461      In  0.27633370  0.36326951  0.48849018     1.36900
C462        C  0.30484810  0.46263705  0.47993099     0.76900
O463        O  0.24697180  0.31025518  0.55141716    -0.61500
O464        O  0.32629231  0.33115218  0.55296027    -0.52400
C465        C  0.18354811  0.39659456  0.50286311     0.69600
O466        O  0.22040070  0.41338575  0.53105544    -0.47300
C467        C  0.28677049  0.31201682  0.39652883     0.74300
O468        O  0.32251419  0.43523839  0.51611303    -0.59100
O469        O  0.32441369  0.33365819  0.42111415    -0.49200
O470        O  0.28061556  0.43737317  0.44488978    -0.55600
C471        C  0.28917248  0.31040705  0.57660985     0.84500
O472        O  0.19440670  0.36271385  0.46906555    -0.57500
O473        O  0.24563611  0.31084799  0.42200987    -0.60800
In474      In  0.26446474  0.61508279  0.50213138     1.36900
C475        C  0.30126260  0.51952949  0.48300053     0.76900
O476        O  0.22866160  0.66104377  0.43481852    -0.61500
O477        O  0.31036318  0.65435459  0.44024198    -0.52400
C478        C  0.17785775  0.57385667  0.52911521     0.69600
O479        O  0.18197141  0.60296923  0.49070462    -0.47300
C480        C  0.27652513  0.66949835  0.59185530     0.74300
O481        O  0.31860692  0.54719704  0.52050616    -0.59100
O482        O  0.31397238  0.65052678  0.56642196    -0.49200
O483        O  0.27188884  0.54323084  0.45221829    -0.55600
C484        C  0.27147056  0.66876971  0.41333695     0.84500
O485        O  0.21919777  0.56389355  0.55344139    -0.57500
O486        O  0.23384817  0.66826231  0.56727111    -0.60800
C487        C  0.23013715  0.76120317  0.77197585     0.85800
C488        C  0.22372860  0.74902237  0.83130816    -0.54400
C489        C  0.19374554  0.78409222  0.85895711     0.08800
C490        C  0.17288478  0.82757363  0.82587817     0.19700
C491        C  0.17202813  0.76682052  0.75264416    -0.55100
C492        C  0.14270104  0.80217530  0.78045645     0.08900
C493        C  0.24991670  0.81809704  0.77387743    -0.54700
C494        C  0.22053844  0.85186884  0.80278918     0.09400
H495        H  0.24078431  0.71592006  0.84972876     0.14000
H496        H  0.14906710  0.85553558  0.84836415    -0.00300
H497        H  0.15568821  0.74596108  0.71922718     0.14300
H498        H  0.28474082  0.83103320  0.75515390     0.14000
C499        C  0.26729203  0.72180138  0.73695705     0.85800
C500        C  0.25071049  0.71595696  0.67780422    -0.54400
C501        C  0.28216335  0.68439409  0.64828897     0.08800
C502        C  0.32618873  0.66060577  0.67925930     0.19700
C503        C  0.27179724  0.66459991  0.75514618    -0.55100
C504        C  0.30329224  0.63347647  0.72457058     0.08900
C505        C  0.32627228  0.73773481  0.73393918    -0.54700
C506        C  0.35601039  0.70501680  0.70383821     0.09400
H507        H  0.21808995  0.73578615  0.66029716     0.14000
H508        H  0.35056733  0.63456822  0.65504485    -0.00300
H509        H  0.25438962  0.65067696  0.79020311     0.14300
H510        H  0.34353920  0.77077069  0.75393252     0.14000
C511        C  0.86697148  0.35464166  0.38961712    -0.27000
C512        C  0.85534801  0.40491748  0.40391822    -0.15000
C513        C  0.89559092  0.43562250  0.42363794     0.35600
C514        C  0.93491464  0.41258363  0.45267456    -0.26400
C515        C  0.94143328  0.35860099  0.45007938    -0.15700
C516        C  0.90572885  0.32948548  0.41765165     0.36700
N517        N  0.90844894  0.27469199  0.41291322    -0.89900
H518        H  0.83811933  0.33172178  0.36829225     0.17800
H519        H  0.96022307  0.43750943  0.47576061     0.17800
N520        N  0.89440006  0.49010681  0.41833274    -0.88900
H521        H  0.87330186  0.25959504  0.42549065     0.35200
H522        H  0.91215913  0.26444455  0.37356878     0.40300
H523        H  0.86191427  0.50048456  0.39591109     0.39900
H524        H  0.92714811  0.50052444  0.39753910     0.34800
C525        C  0.94368214  0.27376038  0.60099160    -0.27000
C526        C  0.96166680  0.22304522  0.59361941    -0.15000
C527        C  0.97064124  0.20496194  0.54247848     0.35600
C528        C  0.97035066  0.23956082  0.50237607    -0.26400
C529        C  0.96810310  0.29298656  0.51262948    -0.15700
C530        C  0.94554706  0.30879629  0.56016207     0.36700
N531        N  0.93114361  0.36132172  0.56917525    -0.89900
H532        H  0.93223651  0.28738968  0.63926262     0.17800
H533        H  0.97667397  0.22391705  0.46377753     0.17800
N534        N  0.98391042  0.15277054  0.53002415    -0.88900
H535        H  0.95273945  0.37596167  0.60102383     0.35200
H536        H  0.89196879  0.36209682  0.57917418     0.40300
H537        H  0.95432058  0.12876558  0.54253519     0.39900
H538        H  0.01897311  0.14379894  0.54879893     0.34800
C539        C  0.06523232  0.23031922  0.39715304    -0.27000
C540        C  0.03959141  0.23655591  0.34921323    -0.15000
C541        C  0.01744554  0.28443772  0.33736975     0.35600
C542        C  0.01112043  0.31983579  0.37715140    -0.26400
C543        C  0.02021525  0.30559062  0.42908126    -0.15700
C544        C  0.05787125  0.26681561  0.43715474     0.36700
N545        N  0.08331835  0.26096937  0.48664820    -0.89900
H546        H  0.08705631  0.19568615  0.40478185     0.17800
H547        H  0.99149965  0.35513936  0.36752700     0.17800
N548        N  0.99479852  0.29611947  0.28763373    -0.88900
H549        H  0.12331511  0.26406697  0.48110891     0.35200
H550        H  0.07606532  0.22398626  0.49965278     0.40300
H551        H  0.96418065  0.27071662  0.27903825     0.39900
H552        H  0.02327344  0.29305774  0.25925556     0.34800
C553        C  0.10701861  0.38954981  0.55212308    -0.27000
C554        C  0.13058536  0.41152563  0.50985898    -0.15000
C555        C  0.10163202  0.42261923  0.46502616     0.35600
C556        C  0.05104610  0.40528495  0.46119871    -0.26400
C557        C  0.03092057  0.37015446  0.49714153    -0.15700
C558        C  0.05975142  0.36396076  0.54473977     0.36700
N559        N  0.04686461  0.32687225  0.58251525    -0.89900
H560        H  0.13046076  0.38099935  0.58636634     0.17800
H561        H  0.03129449  0.41172964  0.42452576     0.17800
N562        N  0.12568578  0.44142351  0.41892921    -0.88900
H563        H  0.07708013  0.30021966  0.58521334     0.35200
H564        H  0.04394649  0.34573330  0.61872108     0.40300
H565        H  0.16140617  0.45866480  0.42855068     0.39900
H566        H  0.10240508  0.47046198  0.40365290     0.34800
C567        C  0.17906726  0.45465189  0.90855280    -0.27000
C568        C  0.17122383  0.50295905  0.93363683    -0.15000
C569        C  0.20069728  0.54565787  0.91645422     0.35600
C570        C  0.24007255  0.53802696  0.88105672    -0.26400
C571        C  0.25102822  0.48921745  0.86185051    -0.15700
C572        C  0.21907490  0.44751888  0.87288211     0.36700
N573        N  0.22879179  0.39787261  0.84945223    -0.89900
H574        H  0.15851191  0.42092405  0.92035053     0.17800
H575        H  0.26340809  0.57047735  0.86968580     0.17800
N576        N  0.19362709  0.59646530  0.93763600    -0.88900
H577        H  0.20166670  0.37102214  0.86169367     0.35200
H578        H  0.26518386  0.38557922  0.86285994     0.40300
H579        H  0.18392572  0.62063674  0.90708170     0.39900
H580        H  0.22945087  0.60917885  0.95286309     0.34800
C581        C  0.08621445  0.56238792  0.04063537    -0.27000
C582        C  0.10463769  0.54888406  0.99077847    -0.15000
C583        C  0.08148067  0.57323094  0.94698807     0.35600
C584        C  0.05370412  0.61783155  0.95532814    -0.26400
C585        C  0.05363876  0.64020711  0.00495022    -0.15700
C586        C  0.06309325  0.60997654  0.04849393     0.36700
N587        N  0.05618715  0.63039970  0.10024295    -0.89900
H588        H  0.09780238  0.54071750  0.07435300     0.17800
H589        H  0.04188169  0.63964990  0.92175452     0.17800
N590        N  0.08771672  0.55540313  0.89419962    -0.88900
H591        H  0.09224661  0.63169882  0.11950526     0.35200
H592        H  0.03286513  0.60492964  0.12015736     0.40300
H593        H  0.10491148  0.58459565  0.87323324     0.39900
H594        H  0.05075819  0.54923810  0.87763985     0.34800
C595        C  0.05918070  0.38678076  0.97780610    -0.27000
C596        C  0.08159385  0.35947754  0.01815525    -0.15000
C597        C  0.10812283  0.38522151  0.05877962     0.35600
C598        C  0.12344443  0.43567976  0.05143382    -0.26400
C599        C  0.11451245  0.45870465  0.00268515    -0.15700
C600        C  0.07480922  0.43690137  0.97003690     0.36700
N601        N  0.05369264  0.46309677  0.92645305    -0.89900
H602        H  0.03534880  0.36712970  0.94831006     0.17800
H603        H  0.14613238  0.45459362  0.08213669     0.17800
N604        N  0.12428936  0.35868251  0.10447541    -0.88900
H605        H  0.01348843  0.46585354  0.93101026     0.35200
H606        H  0.06059590  0.44115816  0.89268158     0.40300
H607        H  0.10934136  0.37837830  0.13680191     0.39900
H608        H  0.16484186  0.36021031  0.10732180     0.34800
C609        C  0.22912761  0.47148714  0.02316922    -0.27000
C610        C  0.19453748  0.51386513  0.02330163    -0.15000
C611        C  0.21132801  0.55949308  0.05063692     0.35600
C612        C  0.25754353  0.55891502  0.08020544    -0.26400
C613        C  0.28824818  0.51474267  0.08286430    -0.15700
C614        C  0.27548221  0.47162438  0.05163873     0.36700
N615        N  0.30824477  0.42691446  0.05109678    -0.89900
H616        H  0.21899883  0.43677085  0.00136836     0.17800
H617        H  0.26772568  0.59264310  0.10377500     0.17800
N618        N  0.18319265  0.60676803  0.04913561    -0.88900
H619        H  0.34362975  0.43741322  0.03504768     0.35200
H620        H  0.29251351  0.39784956  0.02684671     0.40300
H621        H  0.20780809  0.63537164  0.03587265     0.39900
H622        H  0.17412432  0.61723902  0.08740249     0.34800
C623        C  0.79502337  0.46909069  0.95803218    -0.27000
C624        C  0.80704615  0.51756017  0.98177828    -0.15000
C625        C  0.78690660  0.56145111  0.95534336     0.35600
C626        C  0.74821525  0.55527602  0.91693360    -0.26400
C627        C  0.73114940  0.50682272  0.90102727    -0.15700
C628        C  0.75591897  0.46327899  0.92022488     0.36700
N629        N  0.74203802  0.41262432  0.90196311    -0.89900
H630        H  0.81505744  0.43449908  0.96862870     0.17800
H631        H  0.73329065  0.58877223  0.89734225     0.17800
N632        N  0.80945425  0.61155133  0.96163462    -0.88900
H633        H  0.74813070  0.41003301  0.86189630     0.35200
H634        H  0.70244425  0.40716973  0.90843505     0.40300
H635        H  0.82705854  0.62001251  0.92651520     0.39900
H636        H  0.77940389  0.63831505  0.96478636     0.34800
C637        C  0.72238155  0.56853450  0.09111332    -0.27000
C638        C  0.72036521  0.52954091  0.12710757    -0.15000
C639        C  0.76700366  0.51302897  0.15096414     0.35600
C640        C  0.81365685  0.52434623  0.12755077    -0.26400
C641        C  0.81252033  0.54753431  0.07848166    -0.15700
C642        C  0.77032871  0.58108193  0.07003487     0.36700
N643        N  0.78065530  0.63357852  0.05895887    -0.89900
H644        H  0.68795527  0.59065373  0.08190550     0.17800
H645        H  0.84815913  0.50529386  0.14203193     0.17800
N646        N  0.76697043  0.48186690  0.19622087    -0.88900
H647        H  0.79495650  0.65104346  0.09334770     0.35200
H648        H  0.74593428  0.65224919  0.04938890     0.40300
H649        H  0.78898197  0.50063688  0.22550046     0.39900
H650        H  0.78530030  0.44707727  0.18712510     0.34800
C651        C  0.90711587  0.56002295  0.96959303    -0.27000
C652        C  0.89039741  0.55412763  0.02113666    -0.15000
C653        C  0.91778927  0.58179509  0.06086408     0.35600
C654        C  0.94313771  0.62625925  0.04782211    -0.26400
C655        C  0.93887485  0.64297111  0.99675018    -0.15700
C656        C  0.92895239  0.60668836  0.95627874     0.36700
N657        N  0.93239312  0.61905632  0.90228860    -0.89900
H658        H  0.89472878  0.53358271  0.93864266     0.17800
H659        H  0.95628013  0.65207841  0.07904706     0.17800
N660        N  0.91698866  0.56727177  0.11415591    -0.88900
H661        H  0.95764251  0.59261764  0.88493170     0.35200
H662        H  0.94947691  0.65516502  0.89864326     0.40300
H663        H  0.90266608  0.59808753  0.13642076     0.39900
H664        H  0.95510369  0.56017497  0.12653822     0.34800
C665        C  0.91455393  0.45543696  0.05425493    -0.27000
C666        C  0.86071672  0.46741661  0.04991131    -0.15000
C667        C  0.82449562  0.42856036  0.06526380     0.35600
C668        C  0.84300085  0.38071339  0.07862932    -0.26400
C669        C  0.89447583  0.36772918  0.07011204    -0.15700
C670        C  0.93132621  0.40623470  0.06548268     0.36700
N671        N  0.98576241  0.39583730  0.06978179    -0.89900
H672        H  0.94486223  0.48293696  0.04727368     0.17800
H673        H  0.81489785  0.35052227  0.08489693     0.17800
N674        N  0.76872951  0.43283330  0.06132279    -0.88900
H675        H  0.99166813  0.35779216  0.08046505     0.35200
H676        H  0.00075786  0.41864502  0.10056360     0.40300
H677        H  0.75596593  0.46887447  0.05069194     0.39900
H678        H  0.75292540  0.42496094  0.09742653     0.34800
C679        C  0.43656448  0.87487057  0.57654257    -0.27000
C680        C  0.48461412  0.85272519  0.56604383    -0.15000
C681        C  0.52889252  0.88374238  0.56284061     0.35600
C682        C  0.52695012  0.93264348  0.58477419    -0.26400
C683        C  0.48189152  0.94979382  0.61052885    -0.15700
C684        C  0.43435829  0.92335485  0.59924599     0.36700
N685        N  0.38439523  0.94278985  0.61375560    -0.89900
H686        H  0.40133163  0.85195311  0.57470890     0.17800
H687        H  0.56287195  0.95398529  0.58768587     0.17800
N688        N  0.57733402  0.86485372  0.54312039    -0.88900
H689        H  0.36723508  0.91672402  0.63860184     0.35200
H690        H  0.36087835  0.94375001  0.58018349     0.40300
H691        H  0.57288649  0.82790474  0.52692352     0.39900
H692        H  0.60371079  0.86260621  0.57439031     0.34800
C693        C  0.54694232  0.05422925  0.59657532    -0.27000
C694        C  0.49546226  0.03934926  0.60761285    -0.15000
C695        C  0.45551593  0.05746834  0.57399961     0.35600
C696        C  0.46531521  0.09997249  0.54388305    -0.26400
C697        C  0.51380375  0.12388577  0.54809097    -0.15700
C698        C  0.55663323  0.09588941  0.56623061     0.36700
N699        N  0.60952024  0.11259800  0.56083128    -0.89900
H700        H  0.58038684  0.03560449  0.61375154     0.17800
H701        H  0.43304158  0.11874978  0.52450223     0.17800
N702        N  0.40512031  0.03449412  0.57117822    -0.88900
H703        H  0.62396424  0.12345603  0.59777767     0.35200
H704        H  0.61172324  0.14475188  0.53756336     0.40300
H705        H  0.39919736  0.02050374  0.53304160     0.39900
H706        H  0.37703424  0.06270458  0.57773521     0.34800
C707        C  0.54747915  0.04100088  0.71227345    -0.27000
C708        C  0.53373192  0.99413984  0.68661503    -0.15000
C709        C  0.55259474  0.94803869  0.70924680     0.35600
C710        C  0.58335806  0.95081181  0.75476588    -0.30200
C711        C  0.59411248  0.99788681  0.78022130    -0.15700
C712        C  0.57503664  0.04323755  0.75902533     0.36700
N713        N  0.58303879  0.09208126  0.78486268    -0.89900
H714        H  0.53457103  0.07707319  0.69741135     0.17800
H715        H  0.59877229  0.91554436  0.77034540     0.17800
N716        N  0.53985931  0.89816508  0.68804885    -0.88900
H717        H  0.54664857  0.10823195  0.79222593     0.35200
H718        H  0.60257441  0.11603221  0.75962165     0.40300
H719        H  0.52212284  0.87701764  0.71691628     0.39900
H720        H  0.57447765  0.87951603  0.67852092     0.34800
C721        C  0.40753762  0.05128738  0.76029531    -0.27000
C722        C  0.39982176  0.00581827  0.78729031    -0.15000
C723        C  0.41363410  0.95889041  0.76383027     0.35600
C724        C  0.43290584  0.95808615  0.71403526    -0.26400
C725        C  0.44222088  0.00310983  0.68567340    -0.15700
C726        C  0.42719154  0.05082234  0.70986444     0.36700
N727        N  0.42717823  0.09917802  0.68438224    -0.89900
H728        H  0.39471254  0.08759251  0.77705306     0.17800
H729        H  0.44438649  0.92089612  0.69904698     0.17800
N730        N  0.40720530  0.91118009  0.78973082    -0.88900
H731        H  0.46362541  0.10936683  0.67137291     0.35200
H732        H  0.40034654  0.09799062  0.65363158     0.40300
H733        H  0.44337226  0.89307367  0.79208874     0.39900
H734        H  0.38230183  0.88777129  0.76692882     0.34800
C735        C  0.47682683  0.94185401  0.43103880    -0.27000
C736        C  0.51527639  0.95288601  0.39391566    -0.15000
C737        C  0.55771086  0.91757492  0.39020706     0.35600
C738        C  0.55721864  0.87388516  0.41994238    -0.26400
C739        C  0.51019910  0.85716613  0.43928804    -0.15700
C740        C  0.46976058  0.89216752  0.44697616     0.36700
N741        N  0.41948139  0.87758476  0.46514001    -0.89900
H742        H  0.44539202  0.96817227  0.43923641     0.17800
H743        H  0.58921492  0.84709300  0.41560235     0.17800
N744        N  0.59927266  0.92144443  0.35442753    -0.88900
H745        H  0.41877225  0.83914425  0.47563631     0.35200
H746        H  0.39271818  0.88146945  0.43440670     0.40300
H747        H  0.59956202  0.88817850  0.33076648     0.39900
H748        H  0.63418228  0.92204430  0.37589161     0.34800
C749        C  0.59393716  0.02312446  0.34288238    -0.27000
C750        C  0.54219692  0.02224131  0.32457259    -0.15000
C751        C  0.53187233  0.05051881  0.27845174     0.35600
C752        C  0.57149884  0.05572642  0.24292316    -0.26400
C753        C  0.62118467  0.03820175  0.25547400    -0.15700
C754        C  0.63402919  0.02884222  0.30783302     0.36700
N755        N  0.68677540  0.02115719  0.32462539    -0.89900
H756        H  0.60394479  0.01307684  0.38233886     0.17800
H757        H  0.56260295  0.07004757  0.20453686     0.17800
N758        N  0.48282938  0.07353063  0.26594151    -0.88900
H759        H  0.69024486  0.98409554  0.33889130     0.35200
H760        H  0.69504443  0.04723475  0.35521707     0.40300
H761        H  0.47511500  0.10195094  0.29398590     0.39900
H762        H  0.45296022  0.04667727  0.26437886     0.34800
C763        C  0.41271816  0.95009198  0.32652085    -0.27000
C764        C  0.46377337  0.96344706  0.31337219    -0.15000
C765        C  0.47840325  0.94854538  0.26117534     0.35600
C766        C  0.43992191  0.94471726  0.22243048    -0.26400
C767        C  0.38821499  0.95046219  0.23542464    -0.15700
C768        C  0.37417411  0.94583404  0.28767751     0.36700
N769        N  0.32080374  0.94018231  0.30152815    -0.89900
H770        H  0.40003347  0.95170220  0.36622972     0.17800
H771        H  0.45083830  0.94054709  0.18200636     0.17800
N772        N  0.53012185  0.93590271  0.24546798    -0.88900
H773        H  0.31062930  0.97118568  0.32579085     0.35200
H774        H  0.31740590  0.90664604  0.32273428     0.40300
H775        H  0.55671039  0.94033889  0.27558567     0.39900
H776        H  0.54093569  0.96029187  0.21586604     0.34800
C777        C  0.51127706  0.06115294  0.42297008    -0.27000
C778        C  0.47581181  0.03914264  0.38600133    -0.15000
C779        C  0.42907271  0.06708589  0.37647283     0.35600
C780        C  0.42698012  0.11851958  0.39271484    -0.26400
C781        C  0.47268904  0.14277705  0.40966949    -0.15700
C782        C  0.51506345  0.11398424  0.42682664     0.36700
N783        N  0.56450184  0.13796205  0.43836787    -0.89900
H784        H  0.54375865  0.03915880  0.43745833     0.17800
H785        H  0.39346423  0.14118090  0.38148889     0.17800
N786        N  0.38567260  0.04698907  0.34738837    -0.88900
H787        H  0.59164551  0.11116871  0.45140078     0.35200
H788        H  0.55977334  0.16597339  0.46754158     0.40300
H789        H  0.37868093  0.07010755  0.31531740     0.39900
H790        H  0.35311702  0.04921399  0.37109211     0.34800
C791        C  0.94124679  0.60638721  0.51976548    -0.27000
C792        C  0.96363282  0.65307770  0.53821556    -0.15000
C793        C  0.94381983  0.67421594  0.58579476     0.35600
C794        C  0.89462712  0.65906106  0.60156973    -0.26400
C795        C  0.86937532  0.61870926  0.57531405    -0.15700
C796        C  0.89702355  0.58678598  0.54210939     0.36700
N797        N  0.87297924  0.54105916  0.52144650    -0.89900
H798        H  0.95618772  0.58596503  0.48652999     0.17800
H799        H  0.87454337  0.68133541  0.63113407     0.17800
N800        N  0.97275206  0.70961377  0.61856605    -0.88900
H801        H  0.90071696  0.51180013  0.52083692     0.35200
H802        H  0.86056283  0.54872602  0.48359000     0.40300
H803        H  0.95019967  0.74251098  0.62444938     0.39900
H804        H  0.97853266  0.69284520  0.65476067     0.34800
C805        C  0.07052300  0.62669374  0.57474878    -0.27000
C806        C  0.05172153  0.63077522  0.52290097    -0.15000
C807        C  0.06027000  0.58749385  0.48865315     0.35600
C808        C  0.09395927  0.54905545  0.50443786    -0.26400
C809        C  0.12705190  0.55893087  0.54651623    -0.15700
C810        C  0.10897574  0.59076820  0.58666420     0.36700
N811        N  0.13603145  0.59311354  0.63581854    -0.89900
H812        H  0.05882795  0.65394418  0.60468926     0.17800
H813        H  0.10564896  0.52147293  0.47545065     0.17800
N814        N  0.03723638  0.58245263  0.43750204    -0.88900
H815        H  0.10889398  0.58752375  0.66492265     0.35200
H816        H  0.15155489  0.63001366  0.64118965     0.40300
H817        H  0.01749534  0.54735546  0.43461298     0.39900
H818        H  0.06709890  0.58100744  0.41045354     0.34800
C819        C  0.07297940  0.79564237  0.57791818    -0.27000
C820        C  0.02764074  0.82520435  0.58077935    -0.15000
C821        C  0.98618436  0.81372195  0.54632483     0.35600
C822        C  0.98462321  0.76558107  0.52207836    -0.26400
C823        C  0.02493945  0.72906221  0.52927749    -0.15700
C824        C  0.07244767  0.74766108  0.55181030     0.36700
N825        N  0.11968095  0.71885799  0.54969084    -0.89900
H826        H  0.10686942  0.80643263  0.60135838     0.17800
H827        H  0.94880502  0.75488572  0.50204242     0.17800
N828        N  0.94143942  0.84626418  0.54215479    -0.88900
H829        H  0.14745809  0.74111948  0.53140298     0.35200
H830        H  0.13309108  0.71364779  0.58785140     0.40300
H831        H  0.95268175  0.88446498  0.54888152     0.39900
H832        H  0.91538839  0.83633372  0.57098120     0.34800
C833        C  0.04150219  0.72503476  0.37803324    -0.27000
C834        C  0.99172034  0.73829758  0.36171211    -0.15000
C835        C  0.94826235  0.71553089  0.38413751     0.35600
C836        C  0.95531114  0.68592422  0.42835153    -0.26400
C837        C  0.00531877  0.68057392  0.45141915    -0.15700
C838        C  0.04895106  0.69636877  0.42246190     0.36700
N839        N  0.10103076  0.68744039  0.44048814    -0.89900
H840        H  0.07498596  0.74072041  0.35884187     0.17800
H841        H  0.92083166  0.67349182  0.44786272     0.17800
N842        N  0.89667022  0.72446833  0.36474566    -0.88900
H843        H  0.12005393  0.72285927  0.44394965     0.35200
H844        H  0.11995599  0.66581543  0.41177939     0.40300
H845        H  0.89492905  0.71182704  0.32583709     0.39900
H846        H  0.88963265  0.76397525  0.36611205     0.34800
loop_ 
_geom_bond_atom_site_label_1 
_geom_bond_atom_site_label_2 
_geom_bond_distance 
_geom_bond_site_symmetry_2 
_ccdc_geom_bond_type 
C1          C792   1.546   1_455  S
C1          C806   1.534       .  S
C1          C823   1.558       .  S
C1          C837   1.545       .  S
C2          C736   1.552       .  S
C2          C750   1.550   1_565  S
C2          C764   1.566       .  S
C2          C778   1.555   1_565  S
C3          C683   1.528       .  S
C3          C694   1.530   1_565  S
C3          C708   1.565       .  S
C3          C725   1.549   1_565  S
C4          C624   1.582   1_554  S
C4          C641   1.566       .  S
C4          C652   1.527       .  S
C4          C666   1.560       .  S
C5          C568   1.545       .  S
C5          C582   1.518       .  S
C5          C599   1.544   1_556  S
C5          C610   1.564   1_556  S
C6          C515   1.548       .  S
C6          C529   1.553       .  S
C6          C543   1.552   1_655  S
C6          C557   1.551   1_655  S
In7           O9   2.261   1_554  S
In7          O10   2.254   1_554  S
In7          O18   2.228   1_554  S
In7          O12   2.192       .  S
In7          O14   2.282       .  S
In7          O15   2.266       .  S
In7          O16   2.273   1_554  S
In7          O19   2.321       .  S
C8           O14   1.260       .  A
C8           O16   1.260   1_554  A
C8           C21   1.481   1_655  S
O9           C17   1.261       .  A
O10          C17   1.270       .  A
C11          O18   1.257       .  A
C11          O12   1.254   1_556  A
C11         C655   1.446       .  S
C13          O15   1.269       .  A
C13          O19   1.257       .  A
C13         C240   1.510       .  S
C17          C61   1.489       .  S
In20         O22   2.284       .  S
In20         O23   2.233       .  S
In20         O31   2.191       .  S
In20         O25   2.196   1_554  S
In20         O27   2.291       .  S
In20         O28   2.267   1_554  S
In20         O29   2.268   1_554  S
In20         O32   2.303   1_554  S
C21          O27   1.260       .  A
C21          O29   1.257   1_554  A
O22          C30   1.260       .  A
O23          C30   1.274       .  A
C24          O31   1.252       .  A
C24          O25   1.257   1_554  A
C24         C585   1.438       .  S
C26          O28   1.269       .  A
C26          O32   1.259       .  A
C26         C489   1.502       .  S
C30         C164   1.494       .  S
In33         O35   2.258   1_545  S
In33         O36   2.298   1_545  S
In33         O44   2.227   1_545  S
In33         O38   2.202       .  S
In33         O40   2.292       .  S
In33         O41   2.289       .  S
In33         O42   2.307   1_545  S
In33         O45   2.297       .  S
C34          O40   1.254       .  A
C34          O42   1.257   1_545  A
C34          C47   1.489   1_556  S
O35          C43   1.255       .  A
O36          C43   1.266       .  A
C37          O44   1.260       .  A
C37          O38   1.261   1_565  A
C37         C711   1.463       .  S
C39          O41   1.253       .  A
C39          O45   1.267       .  A
C39         C363   1.496       .  S
C43          C64   1.484       .  S
In46         O48   2.220       .  S
In46         O49   2.244       .  S
In46         O57   2.173       .  S
In46         O51   2.222       .  S
In46         O53   2.272       .  S
In46         O54   2.235   1_545  S
In46         O55   2.278   1_545  S
In46         O58   2.284   1_545  S
C47          O53   1.265       .  A
C47          O55   1.263   1_545  A
O48          C56   1.256       .  A
O49          C56   1.267       .  A
C50          O57   1.259       .  A
C50          O51   1.272       .  A
C50         C753   1.457       .  S
C52          O54   1.266       .  A
C52          O58   1.263       .  A
C52         C237   1.487       .  S
C56         C316   1.458       .  S
C59          C60   1.562       .  S
C59          C65   1.573       .  S
C59          C63   1.557       .  S
C59          C71   1.645       .  S
C60          H67   1.084       .  S
C60          C61   1.378       .  D
C61          C62   1.531       .  S
C62          C66   1.535       .  S
C62          C64   1.523       .  S
C62          H68   1.111       .  S
C63          H69   1.084       .  S
C63          C64   1.379       .  D
C65          H70   1.084       .  S
C65          C66   1.383       .  D
C66          C93   1.518       .  S
C71          C72   1.563       .  S
C71          C77   1.570       .  S
C71          C75   1.581       .  S
C72          H79   1.084       .  S
C72          C73   1.375       .  D
C73         C295   1.487       .  S
C73          C74   1.516       .  S
C74          C78   1.507       .  S
C74          C76   1.508       .  S
C74          H80   1.111       .  S
C75          H81   1.084       .  S
C75          C76   1.389       .  D
C76         C143   1.482       .  S
C77          H82   1.084       .  S
C77          C78   1.378       .  D
C78         C421   1.494       .  S
In83         O85   2.327   1_455  S
In83         O86   2.317   1_455  S
In83         O94   2.201   1_455  S
In83         O88   2.240       .  S
In83         O90   2.287   1_455  S
In83         O91   2.294       .  S
In83         O92   2.309       .  S
In83         O95   2.329       .  S
C84          O90   1.256       .  A
C84          O92   1.261   1_655  A
C84          C97   1.491   1_565  S
O85          C93   1.257       .  A
O86          C93   1.263       .  A
C87          O94   1.264   1_455  A
C87          O88   1.263       .  A
C87         C820   1.463       .  S
C89          O91   1.263       .  A
C89          O95   1.256       .  A
C89         C492   1.510       .  S
In96         O98   2.300   1_655  S
In96         O99   2.284   1_655  S
In96        O107   2.213       .  S
In96        O101   2.226       .  S
In96        O103   2.282       .  S
In96        O104   2.257       .  S
In96        O105   2.293       .  S
In96        O108   2.288       .  S
C97         O103   1.262       .  A
C97         O105   1.261       .  A
O98         C106   1.258       .  A
O99         C106   1.267       .  A
C100        O107   1.268       .  A
C100        O101   1.265       .  A
C100        C526   1.476       .  S
C102        O104   1.256       .  A
C102        O108   1.268       .  A
C102        C368   1.486       .  S
C106        C444   1.501       .  S
C109        C110   1.569       .  S
C109        C115   1.570       .  S
C109        C113   1.565       .  S
C109        C121   1.652       .  S
C110        H117   1.084       .  S
C110        C111   1.385       .  D
C111        C202   1.498       .  S
C111        C112   1.516       .  S
C112        C116   1.521       .  S
C112        C114   1.515       .  S
C112        H118   1.112       .  S
C113        H119   1.084       .  S
C113        C114   1.379       .  D
C114        C404   1.476       .  S
C115        H120   1.084       .  S
C115        C116   1.381       .  D
C116        C278   1.493       .  S
C121        C122   1.577       .  S
C121        C127   1.571       .  S
C121        C125   1.569       .  S
C122        H129   1.084       .  S
C122        C123   1.386       .  D
C123        C467   1.499       .  S
C123        C124   1.514       .  S
C124        C128   1.510       .  S
C124        C126   1.510       .  S
C124        H130   1.111       .  S
C125        H131   1.084       .  S
C125        C126   1.379       .  D
C126        C215   1.484       .  S
C127        H132   1.083       .  S
C127        C128   1.379       .  D
C128        C341   1.480       .  S
In133       O135   2.278       .  S
In133       O136   2.212       .  S
In133       O144   2.167       .  S
In133       O138   2.184       .  S
In133       O140   2.269       .  S
In133       O141   2.211       .  S
In133       O142   2.294       .  S
In133       O145   2.267       .  S
C134        O140   1.258       .  A
C134        O142   1.263       .  A
C134        C147   1.488       .  S
O135        C143   1.259       .  A
O136        C143   1.272       .  A
C137        O144   1.257       .  A
C137        O138   1.260       .  A
C137        C680   1.437       .  S
C139        O141   1.269       .  A
C139        O145   1.258       .  A
C139        C506   1.476       .  S
In146       O148   2.284       .  S
In146       O149   2.242       .  S
In146       O157   2.195       .  S
In146       O151   2.186       .  S
In146       O153   2.279       .  S
In146       O154   2.241       .  S
In146       O155   2.292       .  S
In146       O158   2.294       .  S
C147        O153   1.261       .  A
C147        O155   1.260       .  A
O148        C156   1.259       .  A
O149        C156   1.271       .  A
C150        O157   1.258       .  A
C150        O151   1.255       .  A
C150        C739   1.436       .  S
C152        O154   1.268       .  A
C152        O158   1.257       .  A
C152        C252   1.490       .  S
C156        C173   1.493       .  S
C159        C160   1.565       .  S
C159        C165   1.570       .  S
C159        C163   1.585       .  S
C159        C171   1.666       .  S
C160        H167   1.083       .  S
C160        C161   1.375       .  D
C161        C193   1.491       .  S
C161        C162   1.515       .  S
C162        C166   1.503       .  S
C162        C164   1.513       .  S
C162        H168   1.112       .  S
C163        H169   1.083       .  S
C163        C164   1.390       .  D
C165        H170   1.082       .  S
C165        C166   1.382       .  D
C166        C408   1.478       .  S
C171        C172   1.581       .  S
C171        C177   1.583       .  S
C171        C175   1.567       .  S
C172        H179   1.082       .  S
C172        C173   1.384       .  D
C173        C174   1.509       .  S
C174        C178   1.516       .  S
C174        C176   1.513       .  S
C174        H180   1.112       .  S
C175        H181   1.083       .  S
C175        C176   1.377       .  D
C176        C219   1.485       .  S
C177        H182   1.083       .  S
C177        C178   1.385       .  D
C178        C484   1.502       .  S
In183       O185   2.269   1_655  S
In183       O186   2.275   1_655  S
In183       O194   2.209       .  S
In183       O188   2.205       .  S
In183       O190   2.297       .  S
In183       O191   2.268       .  S
In183       O192   2.279       .  S
In183       O195   2.261       .  S
C184        O190   1.269       .  A
C184        O192   1.264       .  A
C184        C197   1.500   1_565  S
O185        C193   1.260       .  A
O186        C193   1.272       .  A
C187        O194   1.264       .  A
C187        O188   1.275       .  A
C187        C834   1.452       .  S
C189        O191   1.272       .  A
C189        O195   1.262       .  A
C189        C242   1.490       .  S
In196       O198   2.327   1_455  S
In196       O199   2.300   1_455  S
In196       O207   2.132       .  S
In196       O201   2.225       .  S
In196       O203   2.294   1_455  S
In196       O204   2.298       .  S
In196       O205   2.289       .  S
In196       O208   2.275       .  S
C197        O203   1.265       .  A
C197        O205   1.267   1_655  A
O198        C206   1.261       .  A
O199        C206   1.273       .  A
C200        O207   1.257       .  A
C200        O201   1.274       .  A
C200        C540   1.445       .  S
C202        O204   1.273       .  A
C202        O208   1.260       .  A
C206        C318   1.520       .  S
In209       O211   2.303       .  S
In209       O212   2.243       .  S
In209       O220   2.181       .  S
In209       O214   2.220       .  S
In209       O216   2.289       .  S
In209       O217   2.267       .  S
In209       O218   2.301       .  S
In209       O221   2.285       .  S
C210        O216   1.258       .  A
C210        O218   1.259       .  A
C210        C223   1.492       .  S
O211        C219   1.257       .  A
O212        C219   1.261       .  A
C213        O220   1.262       .  A
C213        O214   1.263       .  A
C213        C613   1.461       .  S
C215        O217   1.263       .  A
C215        O221   1.249       .  A
In222       O224   2.298       .  S
In222       O225   2.295       .  S
In222       O233   2.184       .  S
In222       O227   2.210       .  S
In222       O229   2.290       .  S
In222       O230   2.312       .  S
In222       O231   2.302       .  S
In222       O234   2.275       .  S
C223        O229   1.258       .  A
C223        O231   1.260       .  A
O224        C232   1.258       .  A
O225        C232   1.272       .  A
C226        O233   1.260       .  A
C226        O227   1.259       .  A
C226        C638   1.442       .  S
C228        O230   1.268       .  A
C228        O234   1.253       .  A
C228        C249   1.490       .  S
C232        C328   1.504       .  S
C235        C236   1.575       .  S
C235        C241   1.569       .  S
C235        C239   1.592       .  S
C235        C247   1.686       .  S
C236        H243   1.081       .  S
C236        C237   1.381       .  D
C237        C238   1.512       .  S
C238        C242   1.511       .  S
C238        C240   1.515       .  S
C238        H244   1.112       .  S
C239        H245   1.082       .  S
C239        C240   1.396       .  D
C241        H246   1.079       .  S
C241        C242   1.375       .  D
C247        C248   1.574       .  S
C247        C253   1.586       .  S
C247        C251   1.581       .  S
C248        H255   1.082       .  S
C248        C249   1.385       .  D
C249        C250   1.506       .  S
C250        C254   1.513       .  S
C250        C252   1.514       .  S
C250        H256   1.112       .  S
C251        H257   1.081       .  S
C251        C252   1.385       .  D
C253        H258   1.081       .  S
C253        C254   1.382       .  D
C254        C291   1.504       .  S
In259       O261   2.298   1_556  S
In259       O262   2.257   1_556  S
In259       O270   2.164       .  S
In259       O264   2.246   1_556  S
In259       O266   2.224       .  S
In259       O267   2.258       .  S
In259       O268   2.294   1_556  S
In259       O271   2.283       .  S
C260        O266   1.258       .  A
C260        O268   1.263   1_556  A
C260        C273   1.472   1_655  S
O261        C269   1.256       .  A
O262        C269   1.267       .  A
C263        O270   1.263   1_554  A
C263        O264   1.259       .  A
C263        C669   1.445       .  S
C265        O267   1.267       .  A
C265        O271   1.257       .  A
C265        C366   1.491       .  S
C269        C313   1.498       .  S
In272       O274   2.296       .  S
In272       O275   2.253       .  S
In272       O283   2.165       .  S
In272       O277   2.222   1_556  S
In272       O279   2.227       .  S
In272       O280   2.278   1_556  S
In272       O281   2.295   1_556  S
In272       O284   2.249   1_556  S
C273        O279   1.254       .  A
C273        O281   1.264   1_556  A
O274        C282   1.259       .  A
O275        C282   1.269       .  A
C276        O283   1.261   1_554  A
C276        O277   1.256       .  A
C276        C596   1.431       .  S
C278        O280   1.260       .  A
C278        O284   1.269       .  A
C282        C439   1.499       .  S
In285       O287   2.232       .  S
In285       O288   2.275       .  S
In285       O296   2.183       .  S
In285       O290   2.226       .  S
In285       O292   2.229       .  S
In285       O293   2.273       .  S
In285       O294   2.320       .  S
In285       O297   2.313       .  S
C286        O292   1.260       .  A
C286        O294   1.267       .  A
C286        C299   1.483       .  S
O287        C295   1.266       .  A
O288        C295   1.255       .  A
C289        O296   1.266       .  A
C289        O290   1.257       .  A
C289        C795   1.435       .  S
C291        O293   1.267       .  A
C291        O297   1.258       .  A
In298       O300   2.302       .  S
In298       O301   2.245       .  S
In298       O309   2.226       .  S
In298       O303   2.175       .  S
In298       O305   2.222       .  S
In298       O306   2.276       .  S
In298       O307   2.316       .  S
In298       O310   2.332       .  S
C299        O305   1.259       .  A
C299        O307   1.270       .  A
O300        C308   1.260       .  A
O301        C308   1.271       .  A
C302        O309   1.257       .  A
C302        O303   1.274       .  A
C302        C512   1.443       .  S
C304        O306   1.268       .  A
C304        O310   1.263       .  A
C304        C380   1.517       .  S
C308        C330   1.503       .  S
C311        C312   1.575       .  S
C311        C317   1.590       .  S
C311        C315   1.557       .  S
C311        C323   1.672       .  S
C312        H319   1.083       .  S
C312        C313   1.386       .  D
C313        C314   1.519       .  S
C314        C318   1.518       .  S
C314        C316   1.502       .  S
C314        H320   1.112       .  S
C315        H321   1.083       .  S
C315        C316   1.372       .  D
C317        H322   1.084       .  S
C317        C318   1.398       .  D
C323        C324   1.583       .  S
C323        C329   1.573       .  S
C323        C327   1.579       .  S
C324        H331   1.083       .  S
C324        C325   1.383       .  D
C325        C345   1.482       .  S
C325        C326   1.505       .  S
C326        C330   1.519       .  S
C326        C328   1.509       .  S
C326        H332   1.111       .  S
C327        H333   1.083       .  S
C327        C328   1.388       .  D
C329        H334   1.084       .  S
C329        C330   1.384       .  D
In335       O337   2.269       .  S
In335       O338   2.227       .  S
In335       O346   2.149       .  S
In335       O340   2.203       .  S
In335       O342   2.279       .  S
In335       O343   2.229       .  S
In335       O344   2.297       .  S
In335       O347   2.260       .  S
C336        O342   1.258       .  A
C336        O344   1.260       .  A
C336        C349   1.489       .  S
O337        C345   1.258       .  A
O338        C345   1.272       .  A
C339        O346   1.259       .  A
C339        O340   1.256       .  A
C339        C781   1.433       .  S
C341        O343   1.271       .  A
C341        O347   1.257       .  A
In348       O350   2.303       .  S
In348       O351   2.221       .  S
In348       O359   2.157       .  S
In348       O353   2.203       .  S
In348       O355   2.274       .  S
In348       O356   2.226       .  S
In348       O357   2.298       .  S
In348       O360   2.260       .  S
C349        O355   1.258       .  A
C349        O357   1.263       .  A
O350        C358   1.256       .  A
O351        C358   1.268       .  A
C352        O359   1.258       .  A
C352        O353   1.261       .  A
C352        C697   1.446       .  S
C354        O356   1.269       .  A
C354        O360   1.258       .  A
C354        C378   1.478       .  S
C358        C456   1.486       .  S
C361        C362   1.581       .  S
C361        C367   1.564       .  S
C361        C365   1.580       .  S
C361        C373   1.686       .  S
C362        H369   1.079       .  S
C362        C363   1.387       .  D
C363        C364   1.515       .  S
C364        C368   1.518       .  S
C364        C366   1.518       .  S
C364        H370   1.112       .  S
C365        H371   1.079       .  S
C365        C366   1.381       .  D
C367        H372   1.079       .  S
C367        C368   1.374       .  D
C373        C374   1.574       .  S
C373        C379   1.594       .  S
C373        C377   1.571       .  S
C374        H381   1.078       .  S
C374        C375   1.375       .  D
C375        C417   1.487       .  S
C375        C376   1.508       .  S
C376        C380   1.518       .  S
C376        C378   1.513       .  S
C376        H382   1.111       .  S
C377        H383   1.079       .  S
C377        C378   1.379       .  D
C379        H384   1.080       .  S
C379        C380   1.389       .  D
In385       O387   2.307   1_565  S
In385       O388   2.270   1_565  S
In385       O396   2.214   1_565  S
In385       O390   2.186       .  S
In385       O392   2.284   1_565  S
In385       O393   2.279       .  S
In385       O394   2.305       .  S
In385       O397   2.278       .  S
C386        O392   1.258   1_565  A
C386        O394   1.263       .  A
C386        C399   1.495   1_556  S
O387        C395   1.256       .  A
O388        C395   1.266       .  A
C389        O396   1.260       .  A
C389        O390   1.263   1_545  A
C389        C722   1.464       .  S
C391        O393   1.265       .  A
C391        O397   1.253       .  A
C391        C494   1.489       .  S
C395        C442   1.495       .  S
In398       O400   2.257       .  S
In398       O401   2.263       .  S
In398       O409   2.173       .  S
In398       O403   2.236       .  S
In398       O405   2.283       .  S
In398       O406   2.235   1_565  S
In398       O407   2.297       .  S
In398       O410   2.266   1_565  S
C399        O405   1.263       .  A
C399        O407   1.263       .  A
O400        C408   1.258       .  A
O401        C408   1.266       .  A
C402        O409   1.259       .  A
C402        O403   1.271       .  A
C402        C767   1.458       .  S
C404        O406   1.266       .  A
C404        O410   1.259       .  A
In411       O413   2.293       .  S
In411       O414   2.290       .  S
In411       O422   2.192       .  S
In411       O416   2.233       .  S
In411       O418   2.312       .  S
In411       O419   2.272       .  S
In411       O420   2.320       .  S
In411       O423   2.280       .  S
C412        O418   1.262       .  A
C412        O420   1.263       .  A
C412        C425   1.510       .  S
O413        C421   1.255       .  A
O414        C421   1.265       .  A
C415        O422   1.260       .  A
C415        O416   1.268       .  A
C415        C627   1.448       .  S
C417        O419   1.265       .  A
C417        O423   1.258       .  A
In424       O426   2.281       .  S
In424       O427   2.278       .  S
In424       O435   2.180       .  S
In424       O429   2.211       .  S
In424       O431   2.305       .  S
In424       O432   2.280       .  S
In424       O433   2.315       .  S
In424       O436   2.285       .  S
C425        O431   1.265       .  A
C425        O433   1.266       .  A
O426        C434   1.261       .  A
O427        C434   1.271       .  A
C428        O435   1.259       .  A
C428        O429   1.273       .  A
C428        C571   1.439       .  S
C430        O432   1.271       .  A
C430        O436   1.258       .  A
C430        C504   1.496       .  S
C434        C451   1.496       .  S
C437        C438   1.583       .  S
C437        C443   1.573       .  S
C437        C441   1.575       .  S
C437        C449   1.677       .  S
C438        H445   1.082       .  S
C438        C439   1.385       .  D
C439        C440   1.514       .  S
C440        C444   1.521       .  S
C440        C442   1.513       .  S
C440        H446   1.112       .  S
C441        H447   1.083       .  S
C441        C442   1.388       .  D
C443        H448   1.083       .  S
C443        C444   1.379       .  D
C449        C450   1.576       .  S
C449        C455   1.585       .  S
C449        C453   1.578       .  S
C450        H457   1.081       .  S
C450        C451   1.379       .  D
C451        C452   1.501       .  S
C452        C456   1.508       .  S
C452        C454   1.512       .  S
C452        H458   1.112       .  S
C453        H459   1.083       .  S
C453        C454   1.381       .  D
C454        C471   1.495       .  S
C455        H460   1.083       .  S
C455        C456   1.392       .  D
In461       O463   2.290       .  S
In461       O464   2.257       .  S
In461       O472   2.158       .  S
In461       O466   2.229       .  S
In461       O468   2.309       .  S
In461       O469   2.267       .  S
In461       O470   2.259       .  S
In461       O473   2.290       .  S
C462        O468   1.264       .  A
C462        O470   1.258       .  A
C462        C475   1.486       .  S
O463        C471   1.255       .  A
O464        C471   1.269       .  A
C465        O472   1.259       .  A
C465        O466   1.255       .  A
C465        C554   1.432       .  S
C467        O469   1.271       .  A
C467        O473   1.256       .  A
In474       O476   2.307       .  S
In474       O477   2.262       .  S
In474       O485   2.239       .  S
In474       O479   2.160       .  S
In474       O481   2.306       .  S
In474       O482   2.248       .  S
In474       O483   2.254       .  S
In474       O486   2.298       .  S
C475        O481   1.264       .  A
C475        O483   1.258       .  A
O476        C484   1.260       .  A
O477        C484   1.269       .  A
C478        O485   1.255       .  A
C478        O479   1.265       .  A
C478        C809   1.446       .  S
C480        O482   1.269       .  A
C480        O486   1.257       .  A
C480        C501   1.497       .  S
C487        C488   1.576       .  S
C487        C493   1.566       .  S
C487        C491   1.576       .  S
C487        C499   1.664       .  S
C488        H495   1.084       .  S
C488        C489   1.388       .  D
C489        C490   1.525       .  S
C490        C494   1.517       .  S
C490        C492   1.527       .  S
C490        H496   1.111       .  S
C491        H497   1.083       .  S
C491        C492   1.385       .  D
C493        H498   1.082       .  S
C493        C494   1.374       .  D
C499        C500   1.575       .  S
C499        C505   1.577       .  S
C499        C503   1.577       .  S
C500        H507   1.083       .  S
C500        C501   1.379       .  D
C501        C502   1.515       .  S
C502        C506   1.507       .  S
C502        C504   1.506       .  S
C502        H508   1.112       .  S
C503        H509   1.084       .  S
C503        C504   1.388       .  D
C505        H510   1.083       .  S
C505        C506   1.379       .  D
C511        C512   1.387       .  A
C511        C516   1.394       .  A
C511        H518   1.085       .  S
C512        C513   1.389       .  A
C513        C514   1.392       .  A
C513        N520   1.430       .  S
C514        C515   1.417       .  A
C514        H519   1.079       .  S
C515        C516   1.433       .  A
C516        N517   1.432       .  S
N517        H521   1.046       .  S
N517        H522   1.046       .  S
N520        H523   1.047       .  S
N520        H524   1.045       .  S
C525        C526   1.410       .  A
C525        C530   1.409       .  A
C525        H532   1.084       .  S
C526        C527   1.409       .  A
C527        C528   1.386       .  A
C527        N534   1.433       .  S
C528        C529   1.412       .  A
C528        H533   1.078       .  S
C529        C530   1.415       .  A
C530        N531   1.433       .  S
N531        H535   1.045       .  S
N531        H536   1.045       .  S
N534        H537   1.045       .  S
N534        H538   1.045   1_655  S
C539        C540   1.400       .  A
C539        C544   1.399       .  A
C539        H546   1.084       .  S
C540        C541   1.410       .  A
C541        C542   1.372       .  A
C541        N548   1.435   1_455  S
C542        C543   1.409       .  A
C542        H547   1.082   1_455  S
C543        C544   1.417       .  A
C544        N545   1.432       .  S
N545        H549   1.045       .  S
N545        H550   1.045       .  S
N548        H551   1.046       .  S
N548        H552   1.045   1_655  S
C553        C554   1.389       .  A
C553        C558   1.394       .  A
C553        H560   1.086       .  S
C554        C555   1.397       .  A
C555        C556   1.379       .  A
C555        N562   1.442       .  S
C556        C557   1.420       .  A
C556        H561   1.080       .  S
C557        C558   1.432       .  A
C558        N559   1.429       .  S
N559        H563   1.046       .  S
N559        H564   1.046       .  S
N562        H565   1.046       .  S
N562        H566   1.045       .  S
C567        C568   1.417       .  A
C567        C572   1.401       .  A
C567        H574   1.078       .  S
C568        C569   1.429       .  A
C569        C570   1.385       .  A
C569        N576   1.432       .  S
C570        C571   1.384       .  A
C570        H575   1.085       .  S
C571        C572   1.400       .  A
C572        N573   1.438       .  S
N573        H577   1.046       .  S
N573        H578   1.046       .  S
N576        H579   1.045       .  S
N576        H580   1.046       .  S
C581        C582   1.411   1_554  A
C581        C586   1.388       .  A
C581        H588   1.083       .  S
C582        C583   1.427       .  A
C583        C584   1.380       .  A
C583        N590   1.435       .  S
C584        C585   1.389   1_556  A
C584        H589   1.084       .  S
C585        C586   1.402       .  A
C586        N587   1.435       .  S
N587        H591   1.044       .  S
N587        H592   1.044       .  S
N590        H593   1.045       .  S
N590        H594   1.046       .  S
C595        C596   1.389   1_556  A
C595        C600   1.386       .  A
C595        H602   1.085       .  S
C596        C597   1.395       .  A
C597        C598   1.390       .  A
C597        N604   1.433       .  S
C598        C599   1.417       .  A
C598        H603   1.082       .  S
C599        C600   1.420   1_554  A
C600        N601   1.425       .  S
N601        H605   1.046       .  S
N601        H606   1.046       .  S
N604        H607   1.045       .  S
N604        H608   1.046       .  S
C609        C610   1.419       .  A
C609        C614   1.388       .  A
C609        H616   1.082       .  S
C610        C611   1.429       .  A
C611        C612   1.400       .  A
C611        N618   1.431       .  S
C612        C613   1.399       .  A
C612        H617   1.084       .  S
C613        C614   1.400       .  A
C614        N615   1.439       .  S
N615        H619   1.045       .  S
N615        H620   1.046       .  S
N618        H621   1.045       .  S
N618        H622   1.045       .  S
C623        C624   1.421       .  A
C623        C628   1.392       .  A
C623        H630   1.077       .  S
C624        C625   1.437       .  A
C625        C626   1.396       .  A
C625        N632   1.432       .  S
C626        C627   1.386       .  A
C626        H631   1.085       .  S
C627        C628   1.398       .  A
C628        N629   1.433       .  S
N629        H633   1.045       .  S
N629        H634   1.046       .  S
N632        H635   1.045       .  S
N632        H636   1.045       .  S
C637        C638   1.392       .  A
C637        C642   1.398       .  A
C637        H644   1.083       .  S
C638        C639   1.411       .  A
C639        C640   1.387       .  A
C639        N646   1.435       .  S
C640        C641   1.411       .  A
C640        H645   1.083       .  S
C641        C642   1.412       .  A
C642        N643   1.430       .  S
N643        H647   1.045       .  S
N643        H648   1.046       .  S
N646        H649   1.045       .  S
N646        H650   1.046       .  S
C651        C652   1.412   1_556  A
C651        C656   1.392       .  A
C651        H658   1.083       .  S
C652        C653   1.413       .  A
C653        C654   1.380       .  A
C653        N660   1.430       .  S
C654        C655   1.395   1_554  A
C654        H659   1.084       .  S
C655        C656   1.408       .  A
C656        N657   1.436       .  S
N657        H661   1.045       .  S
N657        H662   1.045       .  S
N660        H663   1.046       .  S
N660        H664   1.044       .  S
C665        C666   1.424       .  A
C665        C670   1.389       .  A
C665        H672   1.079       .  S
C666        C667   1.442       .  A
C667        C668   1.384       .  A
C667        N674   1.442       .  S
C668        C669   1.388       .  A
C668        H673   1.085       .  S
C669        C670   1.389       .  A
C670        N671   1.430       .  S
N671        H675   1.046       .  S
N671        H676   1.046   1_655  S
N674        H677   1.037       .  S
N674        H678   1.045       .  S
C679        C680   1.394       .  A
C679        C684   1.380       .  A
C679        H686   1.085       .  S
C680        C681   1.401       .  A
C681        C682   1.382       .  A
C681        N688   1.437       .  S
C682        C683   1.413       .  A
C682        H687   1.079       .  S
C683        C684   1.425       .  A
C684        N685   1.435       .  S
N685        H689   1.046       .  S
N685        H690   1.046       .  S
N688        H691   1.045       .  S
N688        H692   1.045       .  S
C693        C694   1.416       .  A
C693        C698   1.377       .  A
C693        H700   1.081       .  S
C694        C695   1.420       .  A
C695        C696   1.392       .  A
C695        N702   1.428       .  S
C696        C697   1.396       .  A
C696        H701   1.084       .  S
C697        C698   1.402       .  A
C698        N699   1.439       .  S
N699        H703   1.046       .  S
N699        H704   1.043       .  S
N702        H705   1.046       .  S
N702        H706   1.045       .  S
C707        C708   1.415   1_545  A
C707        C712   1.384       .  A
C707        H714   1.074       .  S
C708        C709   1.429       .  A
C709        C710   1.401       .  A
C709        N716   1.432       .  S
C710        C711   1.401       .  A
C710        H715   1.084       .  S
C711        C712   1.399   1_565  A
C712        N713   1.434       .  S
N713        H717   1.046       .  S
N713        H718   1.046       .  S
N716        H719   1.046       .  S
N716        H720   1.046       .  S
C721        C722   1.403       .  A
C721        C726   1.400       .  A
C721        H728   1.084       .  S
C722        C723   1.399   1_545  A
C723        C724   1.381       .  A
C723        N730   1.435       .  S
C724        C725   1.419   1_565  A
C724        H729   1.078       .  S
C725        C726   1.433       .  A
C726        N727   1.434       .  S
N727        H731   1.038       .  S
N727        H732   1.040       .  S
N730        H733   1.046       .  S
N730        H734   1.046       .  S
C735        C736   1.421       .  A
C735        C740   1.380       .  A
C735        H742   1.082       .  S
C736        C737   1.432       .  A
C737        C738   1.387       .  A
C737        N744   1.428       .  S
C738        C739   1.390       .  A
C738        H743   1.086       .  S
C739        C740   1.398       .  A
C740        N741   1.438       .  S
N741        H745   1.044       .  S
N741        H746   1.046       .  S
N744        H747   1.047       .  S
N744        H748   1.046       .  S
C749        C750   1.405       .  A
C749        C754   1.392       .  A
C749        H756   1.080       .  S
C750        C751   1.432       .  A
C751        C752   1.390       .  A
C751        N758   1.433       .  S
C752        C753   1.394       .  A
C752        H757   1.084       .  S
C753        C754   1.407       .  A
C754        N755   1.433       .  S
N755        H759   1.045   1_545  S
N755        H760   1.045       .  S
N758        H761   1.043       .  S
N758        H762   1.039       .  S
C763        C764   1.408       .  A
C763        C768   1.397       .  A
C763        H770   1.077       .  S
C764        C765   1.444       .  A
C765        C766   1.394       .  A
C765        N772   1.435       .  S
C766        C767   1.386       .  A
C766        H771   1.084       .  S
C767        C768   1.405       .  A
C768        N769   1.434       .  S
N769        H773   1.045       .  S
N769        H774   1.045       .  S
N772        H775   1.028       .  S
N772        H776   1.044       .  S
C777        C778   1.416       .  A
C777        C782   1.381       .  A
C777        H784   1.080       .  S
C778        C779   1.428       .  A
C779        C780   1.395       .  A
C779        N786   1.425       .  S
C780        C781   1.393       .  A
C780        H785   1.085       .  S
C781        C782   1.396       .  A
C782        N783   1.440       .  S
N783        H787   1.045       .  S
N783        H788   1.042       .  S
N786        H789   1.046       .  S
N786        H790   1.046       .  S
C791        C792   1.413       .  A
C791        C796   1.387       .  A
C791        H798   1.073       .  S
C792        C793   1.432       .  A
C793        C794   1.396       .  A
C793        N800   1.433       .  S
C794        C795   1.390       .  A
C794        H799   1.084       .  S
C795        C796   1.384       .  A
C796        N797   1.428       .  S
N797        H801   1.045       .  S
N797        H802   1.043       .  S
N800        H803   1.045       .  S
N800        H804   1.046       .  S
C805        C806   1.416       .  A
C805        C810   1.398       .  A
C805        H812   1.081       .  S
C806        C807   1.433       .  A
C807        C808   1.389       .  A
C807        N814   1.435       .  S
C808        C809   1.383       .  A
C808        H813   1.070       .  S
C809        C810   1.395       .  A
C810        N811   1.431       .  S
N811        H815   1.045       .  S
N811        H816   1.046       .  S
N814        H817   1.046       .  S
N814        H818   1.046       .  S
C819        C820   1.401       .  A
C819        C824   1.405       .  A
C819        H826   1.084       .  S
C820        C821   1.402   1_455  A
C821        C822   1.387       .  A
C821        N828   1.435       .  S
C822        C823   1.422   1_655  A
C822        H827   1.081       .  S
C823        C824   1.423       .  A
C824        N825   1.431       .  S
N825        H829   1.045       .  S
N825        H830   1.046       .  S
N828        H831   1.046       .  S
N828        H832   1.045       .  S
C833        C834   1.388   1_455  A
C833        C838   1.390       .  A
C833        H840   1.085       .  S
C834        C835   1.405       .  A
C835        C836   1.398       .  A
C835        N842   1.431       .  S
C836        C837   1.416   1_655  A
C836        H841   1.080       .  S
C837        C838   1.424       .  A
C838        N839   1.432       .  S
N839        H843   1.045       .  S
N839        H844   1.045       .  S
N842        H845   1.045       .  S
N842        H846   1.045       .  S
