geometry optimzed in LAMMPS
_audit_creation_date              2020-11-30 
_audit_creation_method            'lammps2cif' 
_symmetry_space_group_name_H-M    'P1' 
_symmetry_Int_Tables_number       1 
_symmetry_cell_setting            triclinic 
loop_ 
_symmetry_equiv_pos_as_xyz 
  x,y,z 
_cell_length_a                    60.23731784 
_cell_length_b                    60.86665956231183 
_cell_length_c                    43.50552098248225 
_cell_angle_alpha                 91.44921511289233 
_cell_angle_beta                  90.21887143709772 
_cell_angle_gamma                 120.1702310135299 
loop_ 
_atom_site_label 
_atom_site_type_symbol 
_atom_site_fract_x 
_atom_site_fract_y 
_atom_site_fract_z 
_atom_site_charge 
C1          C  0.41099652  0.21888569  0.10191701     0.03100
C2          C  0.41302174  0.20970690  0.13048760    -0.13000
C3          C  0.41726687  0.18916746  0.13190137     0.00600
C4          C  0.41902821  0.17742563  0.10461057    -0.11600
C5          C  0.41613424  0.18578396  0.07585902     0.03100
C6          C  0.41246588  0.20677362  0.07469125    -0.11000
H7          H  0.41128773  0.21853309  0.15159507     0.08700
H8          H  0.42215794  0.16141009  0.10577163     0.06200
H9          H  0.41049335  0.21352989  0.05260964     0.06100
C10         C  0.21514116  0.81587975  0.36936004     0.03100
C11         C  0.20239759  0.80441976  0.34126996    -0.13000
C12         C  0.18006845  0.78039443  0.34076757     0.00600
C13         C  0.17028532  0.76814575  0.36832196    -0.11600
C14         C  0.18305253  0.77900778  0.39633981     0.03100
C15         C  0.20547274  0.80300119  0.39687036    -0.11000
H16         H  0.21025388  0.81378651  0.31987538     0.08700
H17         H  0.15316487  0.74946155  0.36781239     0.06200
H18         H  0.21559523  0.81141270  0.41846843     0.06100
C19         C  0.75449705  0.16651897  0.09282319     0.03100
C20         C  0.76586237  0.17903158  0.06552171    -0.13000
C21         C  0.78939111  0.20194857  0.06668366     0.00600
C22         C  0.80108642  0.21292037  0.09507940    -0.11600
C23         C  0.78927374  0.20180222  0.12255650     0.03100
C24         C  0.76623329  0.17830088  0.12132921    -0.11000
H25         H  0.75670524  0.17075165  0.04343223     0.08700
H26         H  0.81924338  0.23070367  0.09578605     0.06200
H27         H  0.75742612  0.16921158  0.14253174     0.06100
C28         C  0.57971884  0.74876217  0.34841096     0.03100
C29         C  0.58069567  0.76265211  0.32259575    -0.13000
C30         C  0.58077315  0.78564856  0.32623600     0.00600
C31         C  0.57974620  0.79471539  0.35578943    -0.11600
C32         C  0.57776665  0.78069875  0.38178336     0.03100
C33         C  0.57800047  0.75777428  0.37798864    -0.11000
H34         H  0.58142532  0.75559015  0.29972257     0.08700
H35         H  0.57970126  0.81245413  0.35849702     0.06200
H36         H  0.57662707  0.74686641  0.39792000     0.06100
C37         C  0.80724699  0.55983429  0.07693668     0.03100
C38         C  0.79969585  0.55964741  0.04616129    -0.13000
C39         C  0.77592960  0.55771111  0.03946500     0.00600
C40         C  0.75985811  0.55614920  0.06351451    -0.11600
C41         C  0.76658569  0.55530542  0.09411557     0.03100
C42         C  0.79036539  0.55718719  0.10069600    -0.11000
H43         H  0.81226396  0.56110041  0.02760392     0.08700
H44         H  0.74171717  0.55508555  0.05828119     0.06200
H45         H  0.79588652  0.55690170  0.12435677     0.06100
C46         C  0.17034944  0.39265287  0.36577750     0.03100
C47         C  0.18006242  0.38988490  0.39393496    -0.13000
C48         C  0.20498832  0.39346753  0.39593590     0.00600
C49         C  0.21952383  0.39886131  0.36905725    -0.11600
C50         C  0.20917345  0.39992853  0.34063547     0.03100
C51         C  0.18480021  0.39731455  0.33913216    -0.11000
H52         H  0.16837186  0.38536711  0.41422699     0.08700
H53         H  0.23878519  0.40170875  0.37009005     0.06200
H54         H  0.17700573  0.39871288  0.31724433     0.06100
O55         O  0.91799974  0.33530497  0.28828918    -0.80900
O56         O  0.96907508  0.41445468  0.39825293    -0.65600
O57         O  0.93844173  0.35348604  0.34801961    -1.12200
C58         C  0.86314100  0.35914579  0.36461696     1.06000
O59         O  0.93760929  0.39495571  0.43064286    -0.78800
O60         O  0.89208290  0.35146385  0.42206278    -0.66400
Ni61       Ni  0.95140675  0.35308798  0.30839860     1.34900
C62         C  0.89072442  0.33112145  0.41173100     0.84700
O63         O  0.98741578  0.38612481  0.37219549    -0.79300
O64         O  0.98620517  0.36990237  0.32471599    -0.89600
C65         C  0.95870366  0.41425122  0.42367043     0.84300
O66         O  0.95391384  0.38387195  0.29551001    -0.67800
O67         O  0.87563424  0.37607312  0.38553142    -0.87100
C68         C  0.96242029  0.40519010  0.30931835     0.85100
C69         C  0.99771543  0.38028956  0.35028869     1.06700
H70         H  0.92196524  0.39350409  0.35646852     0.38500
O71         O  0.92159213  0.38121640  0.37036726    -1.09800
O72         O  0.89779900  0.32910079  0.38484139    -0.66400
Ni73       Ni  0.90493942  0.34934552  0.34890425     1.26300
O74         O  0.96582563  0.40771294  0.33834364    -0.66700
O75         O  0.87165081  0.34640886  0.35027478    -0.78900
C76         C  0.89682680  0.31753937  0.29800562     0.84500
O77         O  0.89017137  0.31813252  0.32546296    -0.66100
Ni78       Ni  0.90691365  0.38520301  0.40721492     1.27400
Ni79       Ni  0.95491891  0.38450032  0.37204999     1.26100
H80         H  0.93885223  0.34036529  0.35963529     0.39000
O81         O  0.06774175  0.63526397  0.05099221    -0.80900
O82         O  0.01841305  0.55934809  0.15471194    -0.65600
O83         O  0.04671810  0.61965222  0.10879088    -1.12200
C84         C  0.12478660  0.61996217  0.13144938     1.06000
O85         O  0.04760654  0.58112885  0.19070518    -0.78800
O86         O  0.09168897  0.62646997  0.18674737    -0.66400
Ni87       Ni  0.03399690  0.61988562  0.06882190     1.34900
C88         C  0.09217213  0.64600678  0.17638020     0.84700
O89         O  0.99692272  0.58342998  0.12635506    -0.79300
O90         O  0.99945303  0.60482334  0.08366242    -0.89600
C91         C  0.02764202  0.56081229  0.18145195     0.84300
O92         O  0.02726518  0.58740720  0.05362295    -0.67800
O93         O  0.11240042  0.60379079  0.15192956    -0.87100
C94         C  0.02387899  0.56758272  0.06664156     0.85100
C95         C  0.98685652  0.59058391  0.10573905     1.06700
H96         H  0.06712490  0.58299589  0.11889000     0.38500
O97         O  0.06586943  0.59508619  0.13252542    -1.09800
O98         O  0.08642261  0.64718102  0.14855065    -0.66400
Ni99       Ni  0.08127369  0.62624140  0.11213719     1.26300
O100        O  0.02534277  0.56651658  0.09559474    -0.66700
O101        O  0.11563759  0.63135669  0.11597214    -0.78900
C102        C  0.08753857  0.65524563  0.06147441     0.84500
O103        O  0.09452054  0.65654623  0.08931804    -0.66100
Ni104      Ni  0.07980604  0.59283176  0.17058121     1.27400
Ni105      Ni  0.03136091  0.58889224  0.13048194     1.26100
H106        H  0.04509769  0.63215723  0.12118122     0.39000
O107        O  0.41396997  0.06057183  0.29043550    -0.80900
O108        O  0.44113755  0.00613323  0.39748836    -0.65600
O109        O  0.41817735  0.04364435  0.34952245    -1.12200
C110        C  0.50001480  0.11310510  0.36432368     1.06000
O111        O  0.47245082  0.03865994  0.42438918    -0.78800
O112        O  0.45337437  0.07068820  0.42208131    -0.66400
Ni113      Ni  0.40034240  0.02866802  0.31113076     1.34900
C114        C  0.44519409  0.08460236  0.41158953     0.84700
O115        O  0.39556836  0.99557785  0.37477218    -0.79300
O116        O  0.38227778  0.99474479  0.32664333    -0.89600
C117        C  0.45766095  0.01498787  0.41949592     0.84300
O118        O  0.42767341  0.02445205  0.29567512    -0.67800
O119        O  0.49689714  0.10444843  0.39117136    -0.87100
C120        C  0.43912131  0.01424486  0.30848923     0.85100
C121        C  0.37944909  0.98468807  0.35268415     1.06700
H122        H  0.47376719  0.04993818  0.35546886     0.38500
O123        O  0.46311748  0.05372276  0.36855534    -1.09800
O124        O  0.44568934  0.08867410  0.38278155    -0.66400
Ni125      Ni  0.45155728  0.07282021  0.34619981     1.26300
O126        O  0.43703234  0.00933340  0.33702463    -0.66700
O127        O  0.48523684  0.10059657  0.34200574    -0.78900
C128        C  0.42711119  0.08402745  0.29824897     0.84500
O129        O  0.43994907  0.09146182  0.32320484    -0.66100
Ni130      Ni  0.48224282  0.07012703  0.40548315     1.27400
Ni131      Ni  0.42947882  0.02430601  0.37247023     1.26100
H132        H  0.40743841  0.04750532  0.36231422     0.39000
O133        O  0.56693727  0.90327570  0.04416204    -0.80900
O134        O  0.54086298  0.96146491  0.14393634    -0.65600
O135        O  0.57203797  0.92888774  0.10079230    -1.12200
C136        C  0.49511898  0.85440518  0.12998036     1.06000
O137        O  0.53448997  0.93644795  0.18264553    -0.78800
O138        O  0.53636379  0.89229715  0.18176237    -0.66400
Ni139      Ni  0.58422826  0.93803229  0.06012280     1.34900
C140        C  0.55435178  0.88929293  0.17132043     0.84700
O141        O  0.58613955  0.97938809  0.11585638    -0.79300
O142        O  0.60333009  0.97368039  0.07255852    -0.89600
C143        C  0.53398183  0.95527127  0.17137744     0.84300
O144        O  0.55650289  0.94117200  0.04406062    -0.67800
O145        O  0.49188446  0.86867110  0.14924278    -0.87100
C146        C  0.54118871  0.94721786  0.05630424     0.85100
C147        C  0.60285764  0.98758105  0.09480116     1.06700
H148        H  0.51490916  0.91018512  0.11223863     0.38500
O149        O  0.52863723  0.91254474  0.12561622    -1.09800
O150        O  0.56069150  0.89278705  0.14323435    -0.66400
Ni151      Ni  0.54397294  0.89524085  0.10649354     1.26300
O152        O  0.54009408  0.94999813  0.08526956    -0.66700
O153        O  0.51482855  0.86195729  0.11305253    -0.78900
C154        C  0.56553985  0.88381543  0.05629215     0.84500
O155        O  0.56020455  0.87959515  0.08451853    -0.66100
Ni156      Ni  0.51382005  0.90266965  0.16490505     1.27400
Ni157      Ni  0.55694483  0.94620973  0.12114594     1.26100
H158        H  0.58654271  0.93148581  0.11322315     0.39000
C159        C  0.65131453  0.33514145  0.31910267     0.03100
C160        C  0.63220611  0.30982775  0.32300015    -0.13000
C161        C  0.63898102  0.29132388  0.32806092     0.00600
C162        C  0.66482342  0.29806821  0.32902287    -0.11600
C163        C  0.68401804  0.32325026  0.32493732     0.03100
C164        C  0.67723419  0.34178013  0.31977268    -0.11000
H165        H  0.61215040  0.30463698  0.32270497     0.08700
H166        H  0.67001131  0.28374840  0.33344775     0.06200
H167        H  0.69209429  0.36141769  0.31715081     0.06100
C168        C  0.33233306  0.62847508  0.11706687     0.03100
C169        C  0.30710311  0.62414612  0.11603595    -0.13000
C170        C  0.30279500  0.64483014  0.11675607     0.00600
C171        C  0.32375739  0.66968561  0.11838722    -0.11600
C172        C  0.34887174  0.67400541  0.11959153     0.03100
C173        C  0.35309350  0.65340218  0.11896537    -0.11000
H174        H  0.29097365  0.60486968  0.11483153     0.08700
H175        H  0.32051934  0.68567573  0.11904549     0.06200
H176        H  0.37255644  0.65677262  0.11991266     0.06100
O177        O  0.40406509  0.44492529  0.03422062    -0.80900
O178        O  0.33068020  0.42624628  0.14608173    -0.65600
O179        O  0.38874287  0.44577380  0.09517562    -1.12200
C180        C  0.37746979  0.36556236  0.11003734     1.06000
O181        O  0.33241636  0.39645870  0.17304633    -0.78800
O182        O  0.38360923  0.41517309  0.16791884    -0.66400
Ni183      Ni  0.39171205  0.46340148  0.05828390     1.34900
C184        C  0.40519681  0.42493045  0.15494868     0.84700
O185        O  0.36515444  0.46984414  0.12424760    -0.79300
O186        O  0.38045643  0.48484112  0.07784311    -0.89600
C187        C  0.32393751  0.41145222  0.16846705     0.84300
O188        O  0.35806934  0.44013790  0.04339291    -0.67800
O189        O  0.37368648  0.37134737  0.13696678    -0.87100
C190        C  0.33688990  0.43044732  0.05721089     0.85100
C191        C  0.37145144  0.48632744  0.10374945     1.06700
H192        H  0.33931487  0.39147274  0.10282361     0.38500
O193        O  0.35443864  0.40240947  0.11516694    -1.09800
O194        O  0.40760986  0.42103168  0.12647278    -0.66400
Ni195      Ni  0.38441291  0.41256831  0.09115073     1.26300
O196        O  0.33526888  0.42899278  0.08634974    -0.66700
O197        O  0.37864909  0.37871296  0.08733177    -0.78900
C198        C  0.41802359  0.43579908  0.04205913     0.84500
O199        O  0.41437530  0.42393384  0.06676668    -0.66100
Ni200      Ni  0.35361156  0.38576329  0.15242082     1.27400
Ni201      Ni  0.35934506  0.43611809  0.12001397     1.26100
H202        H  0.40396294  0.45664967  0.10741844     0.39000
O203        O  0.63167350  0.55239799  0.25884475    -0.80900
O204        O  0.56181785  0.52679163  0.37219736    -0.65600
O205        O  0.62060518  0.55775628  0.32058633    -1.12200
C206        C  0.61675629  0.47819414  0.33320232     1.06000
O207        O  0.58521532  0.51805168  0.40258192    -0.78800
O208        O  0.62885828  0.51674534  0.39164335    -0.66400
Ni209      Ni  0.61992222  0.57198630  0.28242388     1.34900
C210        C  0.64896228  0.53475201  0.38027234     0.84700
O211        O  0.58747826  0.57328210  0.34567092    -0.79300
O212        O  0.60832049  0.59276183  0.30269878    -0.89600
C213        C  0.56409389  0.51707696  0.39675120     0.84300
O214        O  0.58571624  0.54806940  0.26929744    -0.67800
O215        O  0.60189202  0.47436069  0.35576295    -0.87100
C216        C  0.56605814  0.53165684  0.28304366     0.85100
C217        C  0.59544727  0.59136169  0.32661574     1.06700
H218        H  0.58136559  0.50115995  0.32942245     0.38500
O219        O  0.59485950  0.51392117  0.34262910    -1.09800
O220        O  0.64911188  0.54270192  0.35340820    -0.66400
Ni221      Ni  0.62486139  0.52868391  0.31900683     1.26300
O222        O  0.56594552  0.52837359  0.31178665    -0.66700
O223        O  0.62758211  0.49862157  0.31819487    -0.78900
C224        C  0.65008579  0.54857195  0.26521378     0.84500
O225        O  0.65364023  0.54410287  0.29255193    -0.66100
Ni226      Ni  0.59380404  0.49670007  0.37862696     1.27400
Ni227      Ni  0.59064456  0.54315291  0.34524818     1.26100
H228        H  0.63446162  0.57113997  0.33279630     0.39000
C229        C  0.42843217  0.44033935  0.17392478     0.01300
C230        C  0.43639202  0.46589714  0.18142756     0.04100
C231        C  0.45938882  0.48095732  0.19821255    -0.11900
C232        C  0.47324835  0.46986484  0.20992769     0.23400
C233        C  0.46438873  0.44383107  0.20381326    -0.12500
C234        C  0.44247049  0.42932128  0.18500053     0.04800
C235        C  0.49697734  0.48550366  0.22879789     0.27300
C236        C  0.52111623  0.49197715  0.21676095    -0.13200
C237        C  0.54349771  0.50588170  0.23505656     0.05400
C238        C  0.54220258  0.51558971  0.26453444    -0.09100
C239        C  0.51799814  0.51002908  0.27592479     0.06200
C240        C  0.49543468  0.49398958  0.25873926    -0.13500
Br241      Br  0.48190420  0.42787447  0.22175179    -0.05600
Br242      Br  0.41544764  0.48008340  0.16951743     0.00000
Br243      Br  0.57545644  0.50993288  0.21996961     0.00500
Br244      Br  0.46227010  0.48325049  0.27642250    -0.03900
Br245      Br  0.43117759  0.39411255  0.17506204     0.00600
Br246      Br  0.47216667  0.51690097  0.20449458    -0.03200
Br247      Br  0.52355082  0.48208577  0.17487891    -0.04100
Br248      Br  0.51542136  0.52573632  0.31387613    -0.00100
C249        C  0.43925494  0.44009639  0.02152964     0.01300
C250        C  0.43430248  0.43450049  0.98970286     0.04100
C251        C  0.45453908  0.44545898  0.46887726    -0.11900
C252        C  0.47977027  0.46216042  0.47973373     0.23400
C253        C  0.48505284  0.46585442  0.01157901    -0.12500
C254        C  0.46486425  0.45447605  0.03252530     0.04800
C255        C  0.50079412  0.47593843  0.45770797     0.27300
C256        C  0.51625561  0.46579390  0.44872042    -0.13200
C257        C  0.53663779  0.47905202  0.42853510     0.05400
C258        C  0.54203235  0.50296920  0.41745692    -0.09100
C259        C  0.52626911  0.51299119  0.42639336     0.06200
C260        C  0.50567085  0.49943536  0.44637883    -0.13500
Br261      Br  0.51982114  0.48784351  0.02640613    -0.05600
Br262      Br  0.39964138  0.41200728  0.97482771     0.00000
Br263      Br  0.55596066  0.46316478  0.41527814     0.00500
Br264      Br  0.48428131  0.51317972  0.45891221    -0.03900
Br265      Br  0.47228867  0.46009389  0.07615379     0.00600
Br266      Br  0.44780717  0.43807175  0.42534516    -0.03200
Br267      Br  0.50940438  0.43348327  0.96428715    -0.04100
Br268      Br  0.53357476  0.54589287  0.41284503    -0.00100
C269        C  0.36649638  0.50743883  0.10920226     0.01300
C270        C  0.38696137  0.53272888  0.11191094     0.04100
C271        C  0.38182173  0.55286125  0.11442029    -0.11900
C272        C  0.35624901  0.54772815  0.11334758     0.23400
C273        C  0.33582862  0.52244160  0.11078711    -0.12500
C274        C  0.34091493  0.50231233  0.10923445     0.04800
C275        C  0.35063292  0.56881721  0.11441280     0.27300
C276        C  0.34625184  0.57749762  0.14280723    -0.13200
C277        C  0.34005243  0.59692095  0.14368118     0.05400
C278        C  0.33748444  0.60716605  0.11610193    -0.09100
C279        C  0.34188912  0.59849176  0.08771204     0.06200
C280        C  0.34874365  0.57954012  0.08688940    -0.13500
Br281      Br  0.30087793  0.51551914  0.10837034    -0.05600
Br282      Br  0.42192145  0.53965754  0.11249762     0.00000
Br283      Br  0.33573567  0.61003303  0.18262591     0.00500
Br284      Br  0.35586810  0.56837902  0.04817746    -0.03900
Br285      Br  0.31271937  0.46772941  0.10578321     0.00600
Br286      Br  0.40965929  0.58749574  0.11896423    -0.03200
Br287      Br  0.34887067  0.56273306  0.18039228    -0.04100
Br288      Br  0.33878903  0.61285839  0.05003436    -0.00100
C289        C  0.64432153  0.35499004  0.31619031     0.01300
C290        C  0.63388498  0.36137874  0.34150242     0.04100
C291        C  0.62831158  0.38104671  0.33928300    -0.11900
C292        C  0.63416580  0.39508790  0.31228569     0.23400
C293        C  0.64440164  0.38864684  0.28689781    -0.12500
C294        C  0.64894750  0.36820004  0.28862012     0.04800
C295        C  0.63158514  0.41794406  0.31229668     0.27300
C296        C  0.60906910  0.41659267  0.30061974    -0.13200
C297        C  0.60461090  0.43688341  0.30640305     0.05400
C298        C  0.62232984  0.45805959  0.32452010    -0.09100
C299        C  0.64517798  0.45966896  0.33526842     0.06200
C300        C  0.65018072  0.44000020  0.32832816    -0.13500
Br301      Br  0.65318488  0.40853880  0.25046541    -0.05600
Br302      Br  0.62877690  0.34443990  0.37998819     0.00000
Br303      Br  0.57396025  0.43544847  0.29052912     0.00500
Br304      Br  0.68189006  0.44249369  0.34226220    -0.03900
Br305      Br  0.66118586  0.35803031  0.25318395     0.00600
Br306      Br  0.61356451  0.38956779  0.37373700    -0.03200
Br307      Br  0.58394954  0.38650860  0.27810455    -0.04100
Br308      Br  0.66855458  0.48757127  0.36191308    -0.00100
C309        C  0.37084327  0.70018870  0.12163372     0.01300
C310        C  0.37624877  0.71464319  0.14931655     0.04100
C311        C  0.39696516  0.73975399  0.15107782    -0.11900
C312        C  0.41262635  0.75020746  0.12538439     0.23400
C313        C  0.40745234  0.73560070  0.09786870    -0.12500
C314        C  0.38637785  0.71071382  0.09586773     0.04800
C315        C  0.43391928  0.77691595  0.12675827     0.27300
C316        C  0.42994518  0.79613123  0.11533510    -0.13200
C317        C  0.45027488  0.82140896  0.11557485     0.05400
C318        C  0.47458702  0.82759525  0.12747113    -0.09100
C319        C  0.47842754  0.80844229  0.13951296     0.06200
C320        C  0.45808888  0.78309327  0.13914428    -0.13500
Br321      Br  0.42918228  0.74988641  0.06288277    -0.05600
Br322      Br  0.35549778  0.69985151  0.18492297     0.00000
Br323      Br  0.44484326  0.84760189  0.09947921     0.00500
Br324      Br  0.46295148  0.75688326  0.15641617    -0.03900
Br325      Br  0.37812057  0.69137110  0.05749174     0.00600
Br326      Br  0.40372345  0.76005062  0.18843493    -0.03200
Br327      Br  0.39635638  0.78779478  0.10019291    -0.04100
Br328      Br  0.51106226  0.81712839  0.15804491    -0.00100
C329        C  0.61909563  0.26487637  0.33307764     0.01300
C330        C  0.61706542  0.25437378  0.36215803     0.04100
C331        C  0.59869633  0.22884175  0.36658964    -0.11900
C332        C  0.58146230  0.21430053  0.34251254     0.23400
C333        C  0.58341171  0.22478457  0.31349352    -0.12500
C334        C  0.60261168  0.24994572  0.30858159     0.04800
C335        C  0.56063549  0.18827772  0.34813867     0.27300
C336        C  0.56353042  0.16736476  0.33987547    -0.13200
C337        C  0.54349493  0.14261100  0.34506433     0.05400
C338        C  0.52093078  0.13891410  0.35917656    -0.09100
C339        C  0.51816768  0.15983901  0.36780658     0.06200
C340        C  0.53793726  0.18455454  0.36194378    -0.13500
Br341      Br  0.55968113  0.20464532  0.28063918    -0.05600
Br342      Br  0.63866036  0.27518608  0.39625898     0.00000
Br343      Br  0.54694956  0.11373233  0.33318579     0.00500
Br344      Br  0.53393731  0.21337753  0.37239388    -0.03900
Br345      Br  0.60693980  0.26368250  0.26809781     0.00600
Br346      Br  0.59719338  0.21356657  0.40543991    -0.03200
Br347      Br  0.59500846  0.17279274  0.32171789    -0.04100
Br348      Br  0.48716308  0.15459707  0.38714949    -0.00100
C349        C  0.52481844  0.95247862  0.03555978     0.01300
C350        C  0.53634126  0.97009248  0.01190144     0.04100
C351        C  0.52150042  0.97698192  0.99386996    -0.11900
C352        C  0.49484102  0.96548406  0.99813860     0.23400
C353        C  0.48297530  0.94681732  0.02037158    -0.12500
C354        C  0.49792512  0.94048908  0.03925437     0.04800
C355        C  0.47975308  0.97404770  0.47994056     0.27300
C356        C  0.47702114  0.99431898  0.49146337    -0.13200
C357        C  0.46700107  0.00575669  0.47246028     0.05400
C358        C  0.46099070  0.99799718  0.44100566    -0.09100
C359        C  0.46207613  0.97640560  0.43025664     0.06200
C360        C  0.47098720  0.96423247  0.44990367    -0.13500
Br361      Br  0.44622721  0.93008348  0.02477407    -0.05600
Br362      Br  0.57263143  0.98543073  0.00405341     0.00000
Br363      Br  0.46170967  0.03223193  0.49009103     0.00500
Br364      Br  0.47277062  0.93494007  0.43538738    -0.03900
Br365      Br  0.48114446  0.91428893  0.06872575     0.00600
Br366      Br  0.53769684  0.00281360  0.46370004    -0.03200
Br367      Br  0.48886560  0.00764338  0.03287599    -0.04100
Br368      Br  0.45395444  0.96464566  0.38813571    -0.00100
C369        C  0.45560477  0.00786257  0.28934986     0.01300
C370        C  0.45292840  0.98343841  0.28995597     0.04100
C371        C  0.46828000  0.97744762  0.27123663    -0.11900
C372        C  0.48552913  0.99533723  0.25071111     0.23400
C373        C  0.48845639  0.01976299  0.25015931    -0.12500
C374        C  0.47417805  0.02629589  0.27013299     0.04800
C375        C  0.49971541  0.98790348  0.22892754     0.27300
C376        C  0.52353061  0.99058186  0.23766202    -0.13200
C377        C  0.53542979  0.98080865  0.21828471     0.05400
C378        C  0.52379784  0.96883552  0.18984393    -0.09100
C379        C  0.50082943  0.96771928  0.18026598     0.06200
C380        C  0.48858343  0.97679916  0.20001450    -0.13500
Br381      Br  0.51178321  0.04404148  0.22159837    -0.05600
Br382      Br  0.42721769  0.95739671  0.31473507     0.00000
Br383      Br  0.56786059  0.98417512  0.23034879     0.00500
Br384      Br  0.45582865  0.97289142  0.18822532    -0.03900
Br385      Br  0.48155115  0.06104731  0.27262395     0.00600
Br386      Br  0.46545895  0.94447392  0.27317623    -0.03200
Br387      Br  0.53934689  0.00703299  0.27655995    -0.04100
Br388      Br  0.48525814  0.95248455  0.14077037    -0.00100
C389        C  0.15119753  0.62543879  0.12551838     0.01300
C390        C  0.17242927  0.64794985  0.13755079     0.04100
C391        C  0.19750099  0.65212994  0.13401089    -0.11900
C392        C  0.20135709  0.63331057  0.11956053     0.23400
C393        C  0.18009049  0.61084345  0.10737453    -0.12500
C394        C  0.15511508  0.60703234  0.11012050     0.04800
C395        C  0.22750097  0.63641241  0.11869197     0.27300
C396        C  0.24148396  0.64292671  0.09121761    -0.13200
C397        C  0.26580165  0.64489786  0.09030672     0.05400
C398        C  0.27645726  0.64086195  0.11699604    -0.09100
C399        C  0.26273221  0.63484398  0.14458364     0.06200
C400        C  0.23816900  0.63225176  0.14533556    -0.13500
Br401      Br  0.18514595  0.58488477  0.08785105    -0.05600
Br402      Br  0.16695197  0.67208198  0.16097027     0.00000
Br403      Br  0.28459956  0.65306083  0.05251098     0.00500
Br404      Br  0.21904371  0.62286138  0.18290236    -0.03900
Br405      Br  0.12610042  0.57631349  0.09328448     0.00600
Br406      Br  0.22659471  0.68342854  0.14944233    -0.03200
Br407      Br  0.22739053  0.64943228  0.05497873    -0.04100
Br408      Br  0.27812785  0.63117758  0.18165654    -0.00100
C409        C  0.83724329  0.35393593  0.35674947     0.01300
C410        C  0.83393037  0.36968964  0.33634899     0.04100
C411        C  0.80911502  0.36504453  0.32939756    -0.11900
C412        C  0.78768758  0.34451099  0.34265535     0.23400
C413        C  0.79100730  0.32859810  0.36281508    -0.12500
C414        C  0.81584119  0.33363734  0.37034719     0.04800
C415        C  0.76169938  0.34037463  0.33679523     0.27300
C416        C  0.75143179  0.35098748  0.35741710    -0.13200
C417        C  0.72603195  0.34556540  0.35338767     0.05400
C418        C  0.71115721  0.33019086  0.32806833    -0.09100
C419        C  0.72169710  0.32006823  0.30699018     0.06200
C420        C  0.74694511  0.32507638  0.31147386    -0.13500
Br421      Br  0.76147481  0.30008760  0.38026436    -0.05600
Br422      Br  0.86347278  0.39794313  0.31861663     0.00000
Br423      Br  0.71110700  0.35760498  0.38393985     0.00500
Br424      Br  0.76133245  0.31073000  0.28335968    -0.03900
Br425      Br  0.82066146  0.31377776  0.40068868     0.00600
Br426      Br  0.80432212  0.38693307  0.30221696    -0.03200
Br427      Br  0.77217232  0.37262077  0.39149589    -0.04100
Br428      Br  0.70155705  0.29923660  0.27206879    -0.00100
C429        C  0.97024884  0.43666315  0.44490785     0.01300
C430        C  0.99528539  0.44642389  0.45711159     0.04100
C431        C  0.00544271  0.46710674  0.47848238    -0.11900
C432        C  0.99071952  0.47826583  0.48729893     0.23400
C433        C  0.96578461  0.46862647  0.47489589    -0.12500
C434        C  0.95561464  0.44797209  0.45367453     0.04800
C435        C  0.00153931  0.50077604  0.50868137     0.27300
C436        C  0.99339131  0.49811178  0.03921931    -0.13200
C437        C  0.00049606  0.51976874  0.05824690     0.05400
C438        C  0.01728026  0.54446460  0.04723237    -0.09100
C439        C  0.02670011  0.54680779  0.01690206     0.06200
C440        C  0.01811652  0.52509083  0.49754366    -0.13500
Br441      Br  0.94561280  0.48396322  0.48686850    -0.05600
Br442      Br  0.01530489  0.43096946  0.44533383     0.00000
Br443      Br  0.98485376  0.51472387  0.09817506     0.00500
Br444      Br  0.02803829  0.52863223  0.45495411    -0.03900
Br445      Br  0.92207382  0.43620617  0.43534697     0.00600
Br446      Br  0.03933819  0.48000345  0.49610025    -0.03200
Br447      Br  0.97162851  0.46446673  0.05459882    -0.04100
Br448      Br  0.05208138  0.57932871  0.50151465    -0.00100
C449        C  0.96895255  0.42796492  0.29063306     0.01300
C450        C  0.96804986  0.44920731  0.30361239     0.04100
C451        C  0.97605295  0.47122272  0.28648025    -0.11900
C452        C  0.98336950  0.47175844  0.25577046     0.23400
C453        C  0.98267373  0.45030233  0.24199699    -0.12500
C454        C  0.97643614  0.42885718  0.25942268     0.04800
C455        C  0.99432315  0.49561745  0.23857643     0.27300
C456        C  0.97824936  0.50248116  0.22303178    -0.13200
C457        C  0.98904014  0.52426502  0.20500123     0.05400
C458        C  0.01595089  0.53867444  0.20156462    -0.09100
C459        C  0.03191945  0.53137958  0.21681059     0.06200
C460        C  0.02115435  0.51044705  0.23600894    -0.13500
Br461      Br  0.99126532  0.45094291  0.19906770    -0.05600
Br462      Br  0.95506469  0.44871687  0.34431216     0.00000
Br463      Br  0.96685411  0.53448706  0.18571787     0.00500
Br464      Br  0.04314682  0.50150872  0.25835874    -0.03900
Br465      Br  0.98052417  0.40215868  0.23996981     0.00600
Br466      Br  0.97791413  0.50122939  0.30523376    -0.03200
Br467      Br  0.94146898  0.48157513  0.22586794    -0.04100
Br468      Br  0.06836654  0.54815865  0.20923245    -0.00100
C469        C  0.02415119  0.38493621  0.35453292     0.01300
C470        C  0.04247508  0.39695790  0.33143018     0.04100
C471        C  0.06635666  0.39810434  0.33320916    -0.11900
C472        C  0.07242121  0.38803540  0.35855573     0.23400
C473        C  0.05457406  0.37679350  0.38215998    -0.12500
C474        C  0.03041008  0.37505870  0.38009987     0.04800
C475        C  0.09757345  0.38919194  0.36031565     0.27300
C476        C  0.09961812  0.36798619  0.35071184    -0.13200
C477        C  0.12343527  0.36901998  0.35271945     0.05400
C478        C  0.14524728  0.39131052  0.36411285    -0.09100
C479        C  0.14340923  0.41282119  0.37262348     0.06200
C480        C  0.11953661  0.41166859  0.37108534    -0.13500
Br481      Br  0.06308472  0.36303766  0.41682577    -0.05600
Br482      Br  0.03530993  0.41262176  0.29770135     0.00000
Br483      Br  0.12640317  0.34013307  0.33942641     0.00500
Br484      Br  0.11688647  0.44095438  0.38328984    -0.03900
Br485      Br  0.00541102  0.35747216  0.41134908     0.00600
Br486      Br  0.09058471  0.41270906  0.30044273    -0.03200
Br487      Br  0.06985786  0.33777010  0.33423220    -0.04100
Br488      Br  0.17387529  0.44427368  0.38476690    -0.00100
C489        C  0.31345176  0.42204771  0.03811101     0.01300
C490        C  0.31370872  0.43839341  0.01541381     0.04100
C491        C  0.29286432  0.43001817  0.49486054    -0.11900
C492        C  0.27069603  0.40605326  0.49817010     0.23400
C493        C  0.26962484  0.39034025  0.52205665    -0.12500
C494        C  0.29120957  0.39803702  0.04150894     0.04800
C495        C  0.24889082  0.39783432  0.47608705     0.27300
C496        C  0.23447318  0.41023529  0.47679069    -0.13200
C497        C  0.21913425  0.40824132  0.45118281     0.05400
C498        C  0.21654251  0.39209135  0.42570880    -0.09100
C499        C  0.22786689  0.37664594  0.42750885     0.06200
C500        C  0.24494856  0.38038901  0.45186429    -0.13500
Br501      Br  0.23855520  0.35839321  0.52798822    -0.05600
Br502      Br  0.34180336  0.47309206  0.01349966     0.00000
Br503      Br  0.20429311  0.42987969  0.45044479     0.00500
Br504      Br  0.26456923  0.36322858  0.45061739    -0.03900
Br505      Br  0.29058530  0.37481419  0.07123984     0.00600
Br506      Br  0.29519276  0.45123920  0.46123570    -0.03200
Br507      Br  0.23755245  0.43157499  0.51209942    -0.04100
Br508      Br  0.22004620  0.35025287  0.39665248    -0.00100
C509        C  0.22342647  0.40238823  0.31225483     0.01300
C510        C  0.22083833  0.38040242  0.29729993     0.04100
C511        C  0.23606774  0.38264280  0.27186879    -0.11900
C512        C  0.25361630  0.40688330  0.26107482     0.23400
C513        C  0.25510859  0.42877776  0.27495345    -0.12500
C514        C  0.24011191  0.42653607  0.30067640     0.04800
C515        C  0.27187521  0.40944261  0.23679572     0.27300
C516        C  0.29683260  0.41514062  0.24529360    -0.13200
C517        C  0.31418936  0.41709442  0.22261004     0.05400
C518        C  0.30627968  0.41211812  0.19138537    -0.09100
C519        C  0.28136351  0.40665626  0.18283037     0.06200
C520        C  0.26431757  0.40573434  0.20552346    -0.13500
Br521      Br  0.27811838  0.46177927  0.25895873    -0.05600
Br522      Br  0.19651446  0.34723998  0.31191718     0.00000
Br523      Br  0.34920275  0.42758320  0.23434635     0.00500
Br524      Br  0.23047009  0.39903941  0.19405262    -0.03900
Br525      Br  0.24264542  0.45643587  0.32046144     0.00600
Br526      Br  0.23351035  0.35260057  0.25237836    -0.03200
Br527      Br  0.30698281  0.41958109  0.28820720    -0.04100
Br528      Br  0.27000546  0.39894503  0.14043590    -0.00100
C529        C  0.83301988  0.56337644  0.08448833     0.01300
C530        C  0.83532009  0.54368779  0.09789823     0.04100
C531        C  0.85978570  0.54727422  0.10526770    -0.11900
C532        C  0.88214341  0.57015150  0.09822590     0.23400
C533        C  0.87986898  0.58999879  0.08540396    -0.12500
C534        C  0.85542659  0.58676903  0.07895549     0.04800
C535        C  0.90800346  0.57272548  0.10199764     0.27300
C536        C  0.92239692  0.58263251  0.12963734    -0.13200
C537        C  0.94780354  0.58716753  0.13181455     0.05400
C538        C  0.95891054  0.58179530  0.10628371    -0.09100
C539        C  0.94367272  0.57000103  0.07952688     0.06200
C540        C  0.91850587  0.56583208  0.07725564    -0.13500
Br541      Br  0.91041305  0.62161321  0.07651091    -0.05600
Br542      Br  0.80504685  0.51127310  0.10469556     0.00000
Br543      Br  0.96765718  0.60182227  0.16923037     0.00500
Br544      Br  0.89849404  0.55127623  0.03982282    -0.03900
Br545      Br  0.85269331  0.61474635  0.06337536     0.00600
Br546      Br  0.86286887  0.52089539  0.12499306    -0.03200
Br547      Br  0.90740378  0.59062839  0.16409174    -0.04100
Br548      Br  0.95695063  0.55863757  0.04620338    -0.00100
C549        C  0.66652146  0.54823839  0.23976657     0.01300
C550        C  0.67271294  0.56522767  0.21529151     0.04100
C551        C  0.68692041  0.56416380  0.19026903    -0.11900
C552        C  0.69656759  0.54735506  0.19019301     0.23400
C553        C  0.69070892  0.53052096  0.21442841    -0.12500
C554        C  0.67543929  0.53061242  0.23884111     0.04800
C555        C  0.71446797  0.54883070  0.16579055     0.27300
C556        C  0.70627638  0.52991549  0.14220008    -0.13200
C557        C  0.72353324  0.53153600  0.11938154     0.05400
C558        C  0.74873204  0.55279818  0.11910795    -0.09100
C559        C  0.75655087  0.57207869  0.14224760     0.06200
C560        C  0.73979677  0.56963402  0.16604848    -0.13500
Br561      Br  0.70399258  0.50744400  0.21427647    -0.05600
Br562      Br  0.66382115  0.59167443  0.21656624     0.00000
Br563      Br  0.71260612  0.50413767  0.08908474     0.00500
Br564      Br  0.75157942  0.59486669  0.19924743    -0.03900
Br565      Br  0.66654399  0.50566148  0.26987224     0.00600
Br566      Br  0.69347898  0.58599244  0.15588976    -0.03200
Br567      Br  0.67127159  0.50196787  0.14093674    -0.04100
Br568      Br  0.78950122  0.60286454  0.14031126    -0.00100
C569        C  0.76656612  0.55636843  0.00756265     0.01300
C570        C  0.74858516  0.53252672  0.99430528     0.04100
C571        C  0.73320547  0.53104404  0.46898147    -0.11900
C572        C  0.73559614  0.55346809  0.45712597     0.23400
C573        C  0.75569095  0.57729763  0.46800668    -0.12500
C574        C  0.77125223  0.57875450  0.99321209     0.04800
C575        C  0.71482165  0.55195802  0.43689466     0.27300
C576        C  0.71709249  0.55288951  0.40471561    -0.13200
C577        C  0.69675081  0.55051527  0.38591970     0.05400
C578        C  0.67319980  0.54544960  0.39925621    -0.09100
C579        C  0.67184153  0.54631688  0.43177002     0.06200
C580        C  0.69243341  0.54935173  0.45036807    -0.13500
Br581      Br  0.76074807  0.60794908  0.44970276    -0.05600
Br582      Br  0.74391371  0.50188473  0.01230798     0.00000
Br583      Br  0.70148422  0.55327072  0.34201989     0.00500
Br584      Br  0.68967220  0.54895477  0.99461099    -0.03900
Br585      Br  0.79777651  0.61127987  0.00944952     0.00600
Br586      Br  0.70776658  0.49841032  0.45166294    -0.03200
Br587      Br  0.74745724  0.55551704  0.38651147    -0.04100
Br588      Br  0.64206496  0.54414622  0.45138619    -0.00100
C589        C  0.58943442  0.61205394  0.33152038     0.01300
C590        C  0.59825245  0.62803556  0.35816716     0.04100
C591        C  0.59528486  0.64959763  0.36058006    -0.11900
C592        C  0.58384854  0.65555009  0.33622792     0.23400
C593        C  0.57448603  0.63926317  0.30993089    -0.12500
C594        C  0.57696242  0.61745085  0.30775088     0.04800
C595        C  0.58231174  0.67928028  0.33803249     0.27300
C596        C  0.55954545  0.67847786  0.34745167    -0.13200
C597        C  0.55861426  0.70112609  0.35067100     0.05400
C598        C  0.58043231  0.72475639  0.34434703    -0.09100
C599        C  0.60289892  0.72541295  0.33376569     0.06200
C600        C  0.60381847  0.70276813  0.33066161    -0.13500
Br601      Br  0.55893500  0.64732224  0.27647358    -0.05600
Br602      Br  0.61589108  0.62141235  0.39050604     0.00000
Br603      Br  0.52710812  0.69966834  0.36267534     0.00500
Br604      Br  0.63454733  0.70378984  0.31614741    -0.03900
Br605      Br  0.56271293  0.59460106  0.27227900     0.00600
Br606      Br  0.60747093  0.67151568  0.39694348    -0.03200
Br607      Br  0.52957322  0.64621116  0.35565220    -0.04100
Br608      Br  0.63273187  0.75742480  0.32413850    -0.00100
C609        C  0.57441854  0.78998154  0.41248573     0.01300
C610        C  0.55289380  0.79297586  0.41749397     0.04100
C611        C  0.55148944  0.80550419  0.44443043    -0.11900
C612        C  0.57108630  0.81430579  0.46717716     0.23400
C613        C  0.59129386  0.80913684  0.46357455    -0.12500
C614        C  0.59344564  0.79777120  0.43591140     0.04800
C615        C  0.57194966  0.83158730  0.49270076     0.27300
C616        C  0.58834640  0.85802963  0.49056840    -0.13200
C617        C  0.58743153  0.87487904  0.51261765     0.05400
C618        C  0.56894506  0.86547593  0.03617587    -0.09100
C619        C  0.55318504  0.83888044  0.53888975     0.06200
C620        C  0.55521633  0.82205125  0.51766600    -0.13500
Br621      Br  0.61634642  0.81840018  0.49638330    -0.05600
Br622      Br  0.52533433  0.78024557  0.38717711     0.00000
Br623      Br  0.61202322  0.91068474  0.01018575     0.00500
Br624      Br  0.53463126  0.78576724  0.52214707    -0.03900
Br625      Br  0.62373572  0.79528222  0.42910534     0.00600
Br626      Br  0.52322675  0.81168007  0.44950349    -0.03200
Br627      Br  0.61146019  0.87130555  0.45645316    -0.04100
Br628      Br  0.52694572  0.82475329  0.06958878    -0.00100
C629        C  0.58090721  0.80012694  0.29931074     0.01300
C630        C  0.55805314  0.79216897  0.28219525     0.04100
C631        C  0.55714271  0.80788387  0.25961619    -0.11900
C632        C  0.57910900  0.83153324  0.25394488     0.23400
C633        C  0.60234715  0.83877277  0.26976927    -0.12500
C634        C  0.60319338  0.82319647  0.29259513     0.04800
C635        C  0.57709369  0.84949166  0.23310691     0.27300
C636        C  0.58179724  0.84912039  0.20156634    -0.13200
C637        C  0.57721547  0.86429471  0.18140156     0.05400
C638        C  0.56681585  0.87938638  0.19269991    -0.09100
C639        C  0.56495248  0.88166024  0.22511640     0.06200
C640        C  0.56982242  0.86658194  0.24500828    -0.13500
Br641      Br  0.63273930  0.87040051  0.26066216    -0.05600
Br642      Br  0.52758364  0.76041724  0.29094480     0.00000
Br643      Br  0.58510213  0.86318931  0.13858934     0.00500
Br644      Br  0.56582645  0.86860777  0.28887961    -0.03900
Br645      Br  0.63470460  0.83365335  0.31525936     0.00600
Br646      Br  0.52553571  0.79754433  0.23720433    -0.03200
Br647      Br  0.59361743  0.82681599  0.18608256    -0.04100
Br648      Br  0.55664441  0.90593208  0.24331035    -0.00100
C649        C  0.62346363  0.01454893  0.09642882     0.01300
C650        C  0.64756485  0.02119541  0.10943914     0.04100
C651        C  0.66782426  0.04659708  0.10945307    -0.11900
C652        C  0.66466032  0.06517502  0.09444066     0.23400
C653        C  0.64055224  0.05842828  0.08117919    -0.12500
C654        C  0.61969998  0.03346819  0.08354957     0.04800
C655        C  0.68680959  0.09158873  0.09240946     0.27300
C656        C  0.68772675  0.11163230  0.11040699    -0.13200
C657        C  0.70895016  0.13645180  0.10872980     0.05400
C658        C  0.73073219  0.14093047  0.09167491    -0.09100
C659        C  0.72994659  0.12056434  0.07424044     0.06200
C660        C  0.70749434  0.09648453  0.07321438    -0.13500
Br661      Br  0.63641738  0.08303799  0.05853791    -0.05600
Br662      Br  0.65274110  0.99535668  0.12723016     0.00000
Br663      Br  0.70730590  0.16433684  0.12857060     0.00500
Br664      Br  0.70488522  0.07009541  0.04525205    -0.03900
Br665      Br  0.58587209  0.02539608  0.07005836     0.00600
Br666      Br  0.69992250  0.05599127  0.13017188    -0.03200
Br667      Br  0.66023812  0.10492592  0.13815739    -0.04100
Br668      Br  0.76010451  0.12452610  0.05376460    -0.00100
C669        C  0.80135906  0.21555567  0.15210935     0.01300
C670        C  0.80983895  0.20469013  0.17430808     0.04100
C671        C  0.82403659  0.21925418  0.20040326    -0.11900
C672        C  0.83104384  0.24505444  0.20353767     0.23400
C673        C  0.82251251  0.25587131  0.18153054    -0.12500
C674        C  0.80677327  0.24088669  0.15670845     0.04800
C675        C  0.84747364  0.26109924  0.22979322     0.27300
C676        C  0.83658471  0.26815505  0.25388483    -0.13200
C677        C  0.85245945  0.28651554  0.27633006     0.05400
C678        C  0.87943495  0.29675838  0.27595137    -0.09100
C679        C  0.89002355  0.28798083  0.25292602     0.06200
C680        C  0.87416658  0.27085593  0.22946441    -0.13500
Br681      Br  0.83337654  0.29163330  0.18468977    -0.05600
Br682      Br  0.80361313  0.17051038  0.16836266     0.00000
Br683      Br  0.83671950  0.29892371  0.30516957     0.00500
Br684      Br  0.88911566  0.26148850  0.19602695    -0.03900
Br685      Br  0.79202484  0.25506449  0.12960675     0.00600
Br686      Br  0.83445707  0.20415689  0.23165631    -0.03200
Br687      Br  0.79970972  0.25308452  0.25529657    -0.04100
Br688      Br  0.92619224  0.29861897  0.25335915    -0.00100
C689        C  0.87944982  0.30870364  0.43187609     0.01300
C690        C  0.86146285  0.28406041  0.41994178     0.04100
C691        C  0.84776197  0.26396512  0.44003039    -0.11900
C692        C  0.85093426  0.26851465  0.47201078     0.23400
C693        C  0.86987816  0.29243426  0.48394852    -0.12500
C694        C  0.88461331  0.31224503  0.46396935     0.04800
C695        C  0.83321721  0.24884687  0.49322778     0.27300
C696        C  0.81105452  0.24907109  0.50311194    -0.13200
C697        C  0.79555687  0.23243682  0.02586377     0.05400
C698        C  0.80217587  0.21541578  0.03861118    -0.09100
C699        C  0.82366848  0.21439763  0.02775226     0.06200
C700        C  0.83921861  0.23107606  0.50502914    -0.13500
Br701      Br  0.87478847  0.29827267  0.02794089    -0.05600
Br702      Br  0.85346696  0.27753367  0.37653392     0.00000
Br703      Br  0.76636482  0.23407385  0.04111231     0.00500
Br704      Br  0.86943979  0.23071954  0.49134769    -0.03900
Br705      Br  0.91245796  0.34386260  0.48088098     0.00600
Br706      Br  0.82399356  0.23016278  0.42401587    -0.03200
Br707      Br  0.80267982  0.27323349  0.48666642    -0.04100
Br708      Br  0.83238260  0.19074628  0.04498547    -0.00100
C709        C  0.35617602  0.95931229  0.35701965     0.01300
C710        C  0.34178175  0.95448387  0.38422080     0.04100
C711        C  0.31921306  0.93084739  0.38779777    -0.11900
C712        C  0.31045623  0.91201700  0.36408755     0.23400
C713        C  0.32452207  0.91673808  0.33688614    -0.12500
C714        C  0.34716023  0.94024208  0.33320354     0.04800
C715        C  0.28592047  0.88755460  0.36711471     0.27300
C716        C  0.28625766  0.86518211  0.37387303    -0.13200
C717        C  0.26310973  0.84173949  0.37454381     0.05400
C718        C  0.23942801  0.84068635  0.36963304    -0.09100
C719        C  0.23903263  0.86320150  0.36402552     0.06200
C720        C  0.26223152  0.88647391  0.36205451    -0.13500
Br721      Br  0.31231497  0.89090915  0.30429874    -0.05600
Br722      Br  0.35121032  0.98088985  0.41559908     0.00000
Br723      Br  0.26389090  0.81086037  0.38083310     0.00500
Br724      Br  0.26165864  0.91678276  0.35141469    -0.03900
Br725      Br  0.36519400  0.94572953  0.29498221     0.00600
Br726      Br  0.29984780  0.92425100  0.42506555    -0.03200
Br727      Br  0.31854889  0.86668205  0.38171977    -0.04100
Br728      Br  0.20664060  0.86219025  0.35972291    -0.00100
C729        C  0.10285748  0.67642520  0.04038693     0.01300
C730        C  0.09028753  0.68148178  0.51627590     0.04100
C731        C  0.10467201  0.69991753  0.49463332    -0.11900
C732        C  0.13157104  0.71435522  0.49761669     0.23400
C733        C  0.14415064  0.71050908  0.52240763    -0.12500
C734        C  0.13002666  0.69122942  0.04330940     0.04800
C735        C  0.14675292  0.73212339  0.47324974     0.27300
C736        C  0.15767454  0.72407547  0.45019351    -0.13200
C737        C  0.17145769  0.74039571  0.42646242     0.05400
C738        C  0.17295764  0.76423573  0.42451157    -0.09100
C739        C  0.16212236  0.77234783  0.44768295     0.06200
C740        C  0.14957246  0.75653538  0.47242374    -0.13500
Br741      Br  0.18100333  0.73148954  0.52695860    -0.05600
Br742      Br  0.05320110  0.66420703  0.51282838     0.00000
Br743      Br  0.18837463  0.73002754  0.39665233     0.00500
Br744      Br  0.13550150  0.76786109  0.50474150    -0.03900
Br745      Br  0.14883219  0.68418476  0.07379765     0.00600
Br746      Br  0.08763462  0.70493224  0.46004523    -0.03200
Br747      Br  0.15253816  0.69009117  0.45029868    -0.04100
Br748      Br  0.16275370  0.80421055  0.44439469    -0.00100
C749        C  0.16801937  0.76615124  0.31170445     0.01300
C750        C  0.17852239  0.75275545  0.29669259     0.04100
C751        C  0.16439991  0.73464933  0.27321475    -0.11900
C752        C  0.14008331  0.73044909  0.26396703     0.23400
C753        C  0.13018178  0.74483521  0.27779972    -0.12500
C754        C  0.14390883  0.76230644  0.30208275     0.04800
C755        C  0.12449312  0.70974431  0.24104855     0.27300
C756        C  0.12830295  0.71413021  0.20943951    -0.13200
C757        C  0.11665646  0.69364122  0.18783036     0.05400
C758        C  0.10067498  0.66847355  0.19787188    -0.09100
C759        C  0.09489981  0.66473879  0.22957004     0.06200
C760        C  0.10729661  0.68517985  0.25104809    -0.13500
Br761      Br  0.09740244  0.73978518  0.26418722    -0.05600
Br762      Br  0.21144405  0.75781061  0.30992806     0.00000
Br763      Br  0.12434313  0.70076849  0.14498563     0.00500
Br764      Br  0.10179245  0.67944281  0.29453685    -0.03900
Br765      Br  0.12919807  0.78002200  0.32335898     0.00600
Br766      Br  0.17754490  0.71430090  0.25503225    -0.03200
Br767      Br  0.15056736  0.74833651  0.19612999    -0.04100
Br768      Br  0.06925949  0.63193716  0.24404557    -0.00100
C769        C  0.40686649  0.24090702  0.10072930     0.01300
C770        C  0.42519524  0.26462273  0.11424233     0.04100
C771        C  0.42031352  0.28491831  0.11543055    -0.11900
C772        C  0.39773378  0.28203149  0.10178850     0.23400
C773        C  0.37981543  0.25869843  0.08739673    -0.12500
C774        C  0.38417141  0.23806312  0.08717607     0.04800
C775        C  0.39239886  0.30329279  0.10328546     0.27300
C776        C  0.37546256  0.30333946  0.12533915    -0.13200
C777        C  0.36914114  0.32263278  0.12585360     0.05400
C778        C  0.38168941  0.34353211  0.10612521    -0.09100
C779        C  0.39909596  0.34352454  0.08422091     0.06200
C780        C  0.40375885  0.32304796  0.08232603    -0.13500
Br781      Br  0.34892053  0.25494399  0.06870063    -0.05600
Br782      Br  0.45751291  0.26979100  0.13010857     0.00000
Br783      Br  0.34175466  0.31879134  0.15237226     0.00500
Br784      Br  0.42590828  0.32191535  0.05111170    -0.03900
Br785      Br  0.35828102  0.20565388  0.06959433     0.00600
Br786      Br  0.44406621  0.31646971  0.13667597    -0.03200
Br787      Br  0.36129498  0.27699393  0.15530273    -0.04100
Br788      Br  0.41794259  0.37172227  0.05757127    -0.00100
C789        C  0.42775405  0.10317116  0.27691538     0.01300
C790        C  0.43095953  0.10079924  0.24496495     0.04100
C791        C  0.43091881  0.11837917  0.22459379    -0.11900
C792        C  0.42631472  0.13765860  0.23549604     0.23400
C793        C  0.42312932  0.14022831  0.26713171    -0.12500
C794        C  0.42478443  0.12367035  0.28794141     0.04800
C795        C  0.42331476  0.15400466  0.21301698     0.27300
C796        C  0.44496314  0.17629387  0.20296130    -0.13200
C797        C  0.44273455  0.18882520  0.17735614     0.05400
C798        C  0.41889457  0.17902765  0.16182598    -0.09100
C799        C  0.39687820  0.15808785  0.17354663     0.06200
C800        C  0.39908793  0.14555676  0.19907067    -0.13500
Br801      Br  0.41530913  0.16579099  0.28154122    -0.05600
Br802      Br  0.43611950  0.07396874  0.22846495     0.00000
Br803      Br  0.47239660  0.21882475  0.16277817     0.00500
Br804      Br  0.36917859  0.11601511  0.21412615    -0.03900
Br805      Br  0.42212540  0.12908591  0.33126885     0.00600
Br806      Br  0.43682460  0.11598630  0.18130528    -0.03200
Br807      Br  0.47777658  0.18880938  0.22340473    -0.04100
Br808      Br  0.36381899  0.14623762  0.15404416    -0.00100
C809        C  0.43748924  0.09848090  0.43395737     0.01300
C810        C  0.41715046  0.10301109  0.42712318     0.04100
C811        C  0.41224246  0.11881184  0.44686240    -0.11900
C812        C  0.42643579  0.12879462  0.47455671     0.23400
C813        C  0.44568328  0.12317508  0.48233222    -0.12500
C814        C  0.45169506  0.10871085  0.46195729     0.04800
C815        C  0.42084672  0.14443517  0.99672869     0.27300
C816        C  0.43782633  0.17088258  0.99995996    -0.13200
C817        C  0.43603483  0.18465373  0.02542517     0.05400
C818        C  0.41659725  0.17215480  0.04721081    -0.09100
C819        C  0.39830098  0.14609142  0.04240110     0.06200
C820        C  0.40075252  0.13219441  0.01762572    -0.13500
Br821      Br  0.46397777  0.13555272  0.02140580    -0.05600
Br822      Br  0.39436612  0.08583513  0.39244854     0.00000
Br823      Br  0.46163184  0.22009964  0.03163820     0.00500
Br824      Br  0.37762361  0.09595709  0.01344686    -0.03900
Br825      Br  0.48052255  0.10451312  0.47279224     0.00600
Br826      Br  0.38613300  0.12692583  0.43613478    -0.03200
Br827      Br  0.46451137  0.18763617  0.47030633    -0.04100
Br828      Br  0.36972833  0.12922344  0.06968083    -0.00100
C829        C  0.41100939  0.21886020  0.60180886     0.03100
C830        C  0.41302666  0.20968455  0.63038758    -0.13000
C831        C  0.41726259  0.18913906  0.63181900     0.00600
C832        C  0.41900961  0.17737861  0.60453597    -0.11600
C833        C  0.41611906  0.18572865  0.57577614     0.03100
C834        C  0.41247117  0.20673147  0.57459162    -0.11000
H835        H  0.41130065  0.21852285  0.65148903     0.08700
H836        H  0.42212531  0.16135491  0.60570929     0.06200
H837        H  0.41051140  0.21348622  0.55250324     0.06100
C838        C  0.21508944  0.81589205  0.86933618     0.03100
C839        C  0.20230087  0.80440805  0.84127646    -0.13000
C840        C  0.17995112  0.78039997  0.84083208     0.00600
C841        C  0.17019188  0.76819381  0.86841625    -0.11600
C842        C  0.18300002  0.77908504  0.89640616     0.03100
C843        C  0.20544046  0.80306022  0.89687835    -0.11000
H844        H  0.21014374  0.81373705  0.81985828     0.08700
H845        H  0.15306342  0.74951609  0.86795161     0.06200
H846        H  0.21559655  0.81148931  0.91845399     0.06100
C847        C  0.75455225  0.16651697  0.59278320     0.03100
C848        C  0.76591542  0.17901460  0.56547337    -0.13000
C849        C  0.78946957  0.20190471  0.56661492     0.00600
C850        C  0.80119277  0.21287284  0.59500034    -0.11600
C851        C  0.78938479  0.20177443  0.62248669     0.03100
C852        C  0.76632174  0.17829198  0.62127986    -0.11000
H853        H  0.75673328  0.17074513  0.54339160     0.08700
H854        H  0.81936325  0.23064237  0.59569257     0.06200
H855        H  0.75752105  0.16921561  0.64249089     0.06100
C856        C  0.57949763  0.74859930  0.84832779     0.03100
C857        C  0.58046671  0.76249694  0.82252547    -0.13000
C858        C  0.58054976  0.78549343  0.82618824     0.00600
C859        C  0.57952790  0.79454975  0.85575065    -0.11600
C860        C  0.57755453  0.78052392  0.88173448     0.03100
C861        C  0.57778504  0.75759893  0.87791651    -0.11000
H862        H  0.58119701  0.75544626  0.79964566     0.08700
H863        H  0.57949052  0.81229127  0.85847414     0.06200
H864        H  0.57641832  0.74668376  0.89783785     0.06100
C865        C  0.80724980  0.55987493  0.57691192     0.03100
C866        C  0.79968822  0.55966561  0.54613699    -0.13000
C867        C  0.77591000  0.55770215  0.53944347     0.00600
C868        C  0.75984439  0.55614988  0.56349384    -0.11600
C869        C  0.76658386  0.55533044  0.59409621     0.03100
C870        C  0.79036977  0.55722456  0.60067497    -0.11000
H871        H  0.81225611  0.56112031  0.52757855     0.08700
H872        H  0.74169858  0.55507576  0.55826014     0.06200
H873        H  0.79589838  0.55694926  0.62433527     0.06100
C874        C  0.17032598  0.39274534  0.86579860     0.03100
C875        C  0.18005018  0.39001808  0.89397145    -0.13000
C876        C  0.20495427  0.39354562  0.89596743     0.00600
C877        C  0.21946129  0.39885359  0.86907450    -0.11600
C878        C  0.20910086  0.39987929  0.84064176     0.03100
C879        C  0.18474695  0.39731551  0.83913727    -0.11000
H880        H  0.16837988  0.38556122  0.91427577     0.08700
H881        H  0.23870888  0.40166522  0.87010698     0.06200
H882        H  0.17694584  0.39868427  0.81723964     0.06100
O883        O  0.91799772  0.33534079  0.78825967    -0.80900
O884        O  0.96895045  0.41442709  0.89826573    -0.65600
O885        O  0.93839943  0.35348880  0.84800323    -1.12200
C886        C  0.86304836  0.35907951  0.86448507     1.06000
O887        O  0.93745041  0.39493512  0.93061408    -0.78800
O888        O  0.89194749  0.35143293  0.92197881    -0.66400
Ni889      Ni  0.95139681  0.35315473  0.80838447     1.34900
C890        C  0.89062865  0.33109930  0.91168498     0.84700
O891        O  0.98733601  0.38612626  0.87224786    -0.79300
O892        O  0.98619202  0.37000597  0.82472498    -0.89600
C893        C  0.95855281  0.41422706  0.92365852     0.84300
O894        O  0.95384753  0.38392535  0.79553253    -0.67800
O895        O  0.87552300  0.37602422  0.88538777    -0.87100
C896        C  0.96236617  0.40523547  0.80936464     0.85100
C897        C  0.99767065  0.38034703  0.85032865     1.06700
H898        H  0.92188038  0.39346931  0.85640406     0.38500
O899        O  0.92150089  0.38118688  0.87031726    -1.09800
O900        O  0.89773815  0.32907633  0.88481370    -0.66400
Ni901      Ni  0.90488332  0.34931241  0.84885910     1.26300
O902        O  0.96577975  0.40773257  0.83838636    -0.66700
O903        O  0.87157585  0.34633912  0.85018691    -0.78900
C904        C  0.89684039  0.31753911  0.79796096     0.84500
O905        O  0.89016572  0.31810364  0.82541686    -0.66100
Ni906      Ni  0.90677976  0.38516888  0.90712780     1.27400
Ni907      Ni  0.95483381  0.38448782  0.87205659     1.26100
H908        H  0.93881788  0.34036571  0.85960485     0.39000
O909        O  0.06778125  0.63520421  0.55101998    -0.80900
O910        O  0.01837091  0.55938832  0.65479165    -0.65600
O911        O  0.04673116  0.61966549  0.60880820    -1.12200
C912        C  0.12477499  0.61995205  0.63154550     1.06000
O913        O  0.04758719  0.58117085  0.69076551    -0.78800
O914        O  0.09168063  0.62647697  0.68679250    -0.66400
Ni915      Ni  0.03403399  0.61989507  0.56882919     1.34900
C916        C  0.09215638  0.64600872  0.67642274     0.84700
O917        O  0.99691951  0.58348681  0.62635979    -0.79300
O918        O  0.99949697  0.60490107  0.58366633    -0.89600
C919        C  0.02760887  0.56086167  0.68153072     0.84300
O920        O  0.02724558  0.58738719  0.55366956    -0.67800
O921        O  0.11237113  0.60376780  0.65200559    -0.87100
C922        C  0.02386155  0.56756878  0.56670150     0.85100
C923        C  0.98688066  0.59066809  0.60573849     1.06700
H924        H  0.06709978  0.58299198  0.61895954     0.38500
O925        O  0.06585089  0.59509059  0.63258694    -1.09800
O926        O  0.08641493  0.64718564  0.64858925    -0.66400
Ni927      Ni  0.08127917  0.62624105  0.61218329     1.26300
O928        O  0.02532518  0.56651690  0.59565773    -0.66700
O929        O  0.11563780  0.63135036  0.61605572    -0.78900
C930        C  0.08757244  0.65520249  0.56147682     0.84500
O931        O  0.09454575  0.65653674  0.58933237    -0.66100
Ni932      Ni  0.07977889  0.59283383  0.67064624     1.27400
Ni933      Ni  0.03134725  0.58891853  0.63052223     1.26100
H934        H  0.04511545  0.63218153  0.62118069     0.39000
O935        O  0.41384350  0.06055316  0.79050940    -0.80900
O936        O  0.44118410  0.00620986  0.89752460    -0.65600
O937        O  0.41811998  0.04365580  0.84958962    -1.12200
C938        C  0.49993838  0.11316816  0.86431795     1.06000
O939        O  0.47244003  0.03876558  0.92445437    -0.78800
O940        O  0.45333790  0.07076912  0.92211158    -0.66400
Ni941      Ni  0.40026101  0.02866165  0.81121364     1.34900
C942        C  0.44516411  0.08468503  0.91161081     0.84700
O943        O  0.39557719  0.99557145  0.87483024    -0.79300
O944        O  0.38223524  0.99474603  0.82673164    -0.89600
C945        C  0.45769672  0.01508811  0.91954517     0.84300
O946        O  0.42759152  0.02445973  0.79571607    -0.67800
O947        O  0.49684447  0.10452526  0.89117128    -0.87100
C948        C  0.43907829  0.01428392  0.80851422     0.85100
C949        C  0.37944896  0.98467204  0.85275133     1.06700
H950        H  0.47374371  0.05001764  0.85551066     0.38500
O951        O  0.46308332  0.05378759  0.86859687    -1.09800
O952        O  0.44563148  0.08872458  0.88279821    -0.66400
Ni953      Ni  0.45148743  0.07285099  0.84623269     1.26300
O954        O  0.43703829  0.00940090  0.83705787    -0.66700
O955        O  0.48515372  0.10064253  0.84201118    -0.78900
C956        C  0.42699325  0.08401365  0.79829056     0.84500
O957        O  0.43985050  0.09146538  0.82323085    -0.66100
Ni958      Ni  0.48220986  0.07021564  0.90551669     1.27400
Ni959      Ni  0.42946729  0.02434283  0.87252082     1.26100
H960        H  0.40738362  0.04750982  0.86239666     0.39000
O961        O  0.56697727  0.90332494  0.54420479    -0.80900
O962        O  0.54077715  0.96145279  0.64393075    -0.65600
O963        O  0.57202857  0.92893613  0.60081828    -1.12200
C964        C  0.49518454  0.85439073  0.63004463     1.06000
O965        O  0.53444676  0.93646354  0.68266021    -0.78800
O966        O  0.53642670  0.89236547  0.68181578    -0.66400
Ni967      Ni  0.58422432  0.93808369  0.56014892     1.34900
C968        C  0.55441532  0.88936608  0.67136485     0.84700
O969        O  0.58606396  0.97942895  0.61584235    -0.79300
O970        O  0.60328323  0.97373947  0.57255938    -0.89600
C971        C  0.53391438  0.95527170  0.67138047     0.84300
O972        O  0.55647051  0.94116591  0.54407481    -0.67800
O973        O  0.49193614  0.86864419  0.64931310    -0.87100
C974        C  0.54113122  0.94718430  0.55630382     0.85100
C975        C  0.60278480  0.98763873  0.59478616     1.06700
H976        H  0.51463317  0.91011632  0.61202087     0.38500
O977        O  0.52865792  0.91254981  0.62567646    -1.09800
O978        O  0.56073641  0.89285123  0.64327210    -0.66400
Ni979      Ni  0.54399393  0.89527185  0.60652645     1.26300
O980        O  0.54002700  0.94997323  0.58526401    -0.66700
O981        O  0.51488488  0.86196756  0.61309626    -0.78900
C982        C  0.56560224  0.88387925  0.55634736     0.84500
O983        O  0.56026926  0.87966105  0.58457370    -0.66100
Ni984      Ni  0.51382633  0.90266651  0.66493958     1.27400
Ni985      Ni  0.55689091  0.94622589  0.62114731     1.26100
H986        H  0.58653138  0.93155832  0.61325420     0.39000
C987        C  0.65128120  0.33516732  0.81884748     0.03100
C988        C  0.63215934  0.30986691  0.82279484    -0.13000
C989        C  0.63891322  0.29135419  0.82789988     0.00600
C990        C  0.66475012  0.29807706  0.82885817    -0.11600
C991        C  0.68395833  0.32324553  0.82471815     0.03100
C992        C  0.67719350  0.34178248  0.81950459    -0.11000
H993        H  0.61210867  0.30469443  0.82250728     0.08700
H994        H  0.66992317  0.28375207  0.83331920     0.06200
H995        H  0.69206423  0.36141084  0.81684654     0.06100
C996        C  0.33230375  0.62845705  0.61745455     0.03100
C997        C  0.30708762  0.62416069  0.61636928    -0.13000
C998        C  0.30281136  0.64486489  0.61706077     0.00600
C999        C  0.32379377  0.66970895  0.61870609    -0.11600
C1000       C  0.34889535  0.67399616  0.61995574     0.03100
C1001       C  0.35308407  0.65337213  0.61937138    -0.11000
H1002       H  0.29094298  0.60489285  0.61514833     0.08700
H1003       H  0.32058120  0.68571516  0.61933665     0.06200
H1004       H  0.37253727  0.65671749  0.62034664     0.06100
O1005       O  0.40403248  0.44500913  0.53433902    -0.80900
O1006       O  0.33059522  0.42610042  0.64615683    -0.65600
O1007       O  0.38869411  0.44577278  0.59529038    -1.12200
C1008       C  0.37756382  0.36560588  0.61004479     1.06000
O1009       O  0.33240169  0.39633749  0.67309420    -0.78800
O1010       O  0.38361532  0.41517501  0.66796737    -0.66400
Ni1011     Ni  0.39168430  0.46346310  0.55845077     1.34900
C1012       C  0.40520400  0.42495964  0.65499700     0.84700
O1013       O  0.36502297  0.46974494  0.62440529    -0.79300
O1014       O  0.38042975  0.48487586  0.57807945    -0.89600
C1015       C  0.32387784  0.41129560  0.66852768     0.84300
O1016       O  0.35804527  0.44024759  0.54350696    -0.67800
O1017       O  0.37379754  0.37138801  0.63698401    -0.87100
C1018       C  0.33685393  0.43046051  0.55730771     0.85100
C1019       C  0.37136231  0.48628459  0.60397219     1.06700
H1020       H  0.33931755  0.39141611  0.60287898     0.38500
O1021       O  0.35443556  0.40236639  0.61522311    -1.09800
O1022       O  0.40762072  0.42106339  0.62652284    -0.66400
Ni1023     Ni  0.38441792  0.41259000  0.59120987     1.26300
O1024       O  0.33521269  0.42891583  0.58643787    -0.66700
O1025       O  0.37870938  0.37875326  0.58734941    -0.78900
C1026       C  0.41801316  0.43589907  0.54214543     0.84500
O1027       O  0.41438389  0.42401565  0.56683224    -0.66100
Ni1028     Ni  0.35365631  0.38572449  0.65245954     1.27400
Ni1029     Ni  0.35927877  0.43604668  0.62011261     1.26100
H1030       H  0.40389991  0.45664651  0.60755561     0.39000
O1031       O  0.63167611  0.55242621  0.75884295    -0.80900
O1032       O  0.56186942  0.52678483  0.87222240    -0.65600
O1033       O  0.62064005  0.55778785  0.82059302    -1.12200
C1034       C  0.61681263  0.47823944  0.83313535     1.06000
O1035       O  0.58530575  0.51808404  0.90258737    -0.78800
O1036       O  0.62894669  0.51678890  0.89161936    -0.66400
Ni1037     Ni  0.61993566  0.57201215  0.78243810     1.34900
C1038       C  0.64904006  0.53480370  0.88024119     0.84700
O1039       O  0.58748853  0.57326863  0.84569850    -0.79300
O1040       O  0.60833185  0.59277255  0.80273667    -0.89600
C1041       C  0.56417132  0.51708754  0.89677715     0.84300
O1042       O  0.58573025  0.54809006  0.76931976    -0.67800
O1043       O  0.60197076  0.47440361  0.85572209    -0.87100
C1044       C  0.56608288  0.53166107  0.78306539     0.85100
C1045       C  0.59544547  0.59134901  0.82664940     1.06700
H1046       H  0.58142785  0.50118300  0.82942254     0.38500
O1047       O  0.59492165  0.51394905  0.84262469    -1.09800
O1048       O  0.64917688  0.54274916  0.85337791    -0.66400
Ni1049     Ni  0.62491369  0.52872993  0.81898825     1.26300
O1050       O  0.56597845  0.52837133  0.81180612    -0.66700
O1051       O  0.62763926  0.49867369  0.81814172    -0.78900
C1052       C  0.65010719  0.54862583  0.76518926     0.84500
O1053       O  0.65368424  0.54416872  0.79252335    -0.66100
Ni1054     Ni  0.59388963  0.49673553  0.87861573     1.27400
Ni1055     Ni  0.59068417  0.54316224  0.84526174     1.26100
H1056       H  0.63449538  0.57117398  0.83280172     0.39000
C1057       C  0.42844025  0.44036416  0.67397110     0.01300
C1058       C  0.43643687  0.46593561  0.68144146     0.04100
C1059       C  0.45945460  0.48098872  0.69819202    -0.11900
C1060       C  0.47328990  0.46987548  0.70992258     0.23400
C1061       C  0.46439654  0.44383190  0.70383427    -0.12500
C1062       C  0.44246442  0.42933047  0.68504242     0.04800
C1063       C  0.49701564  0.48549940  0.72880373     0.27300
C1064       C  0.52115461  0.49193913  0.71679419    -0.13200
C1065       C  0.54353251  0.50585699  0.73509304     0.05400
C1066       C  0.54223120  0.51558328  0.76455623    -0.09100
C1067       C  0.51802676  0.51003591  0.77592937     0.06200
C1068       C  0.49546772  0.49401050  0.75872936    -0.13500
Br1069     Br  0.48188349  0.42784764  0.72177430    -0.05600
Br1070     Br  0.41551483  0.48015011  0.66954619     0.00000
Br1071     Br  0.57549949  0.50991309  0.72002977     0.00500
Br1072     Br  0.46229969  0.48333140  0.77636896    -0.03900
Br1073     Br  0.43113693  0.39411173  0.67511784     0.00600
Br1074     Br  0.47229721  0.51695068  0.70440292    -0.03200
Br1075     Br  0.52359551  0.48198286  0.67494535    -0.04100
Br1076     Br  0.51544715  0.52573745  0.81388392    -0.00100
C1077       C  0.43923208  0.44021360  0.52159287     0.01300
C1078       C  0.43426216  0.43465890  0.48976356     0.04100
C1079       C  0.45458624  0.44530231  0.96882162    -0.11900
C1080       C  0.47980606  0.46205018  0.97967827     0.23400
C1081       C  0.48503100  0.46592088  0.51163314    -0.12500
C1082       C  0.46484681  0.45454543  0.53258398     0.04800
C1083       C  0.50083144  0.47584832  0.95765608     0.27300
C1084       C  0.51633198  0.46574258  0.94869044    -0.13200
C1085       C  0.53675552  0.47905220  0.92857275     0.05400
C1086       C  0.54211808  0.50295879  0.91748889    -0.09100
C1087       C  0.52630866  0.51293607  0.92639212     0.06200
C1088       C  0.50568940  0.49934247  0.94633782    -0.13500
Br1089     Br  0.51981518  0.48783604  0.52645467    -0.05600
Br1090     Br  0.39958680  0.41221529  0.47489340     0.00000
Br1091     Br  0.55619839  0.46325846  0.91544494     0.00500
Br1092     Br  0.48423074  0.51302185  0.95881258    -0.03900
Br1093     Br  0.47229065  0.46009369  0.57621296     0.00600
Br1094     Br  0.44787946  0.43786301  0.92529373    -0.03200
Br1095     Br  0.50934907  0.43356652  0.46440509    -0.04100
Br1096     Br  0.53358534  0.54583527  0.91286630    -0.00100
C1097       C  0.36639670  0.50738143  0.60949058     0.01300
C1098       C  0.38685719  0.53267269  0.61220908     0.04100
C1099       C  0.38171106  0.55279861  0.61474322    -0.11900
C1100       C  0.35613497  0.54765662  0.61370812     0.23400
C1101       C  0.33571785  0.52236827  0.61116264    -0.12500
C1102       C  0.34081155  0.50224484  0.60956726     0.04800
C1103       C  0.35051465  0.56874112  0.61478020     0.27300
C1104       C  0.34618257  0.57745057  0.64318278    -0.13200
C1105       C  0.34000546  0.59688925  0.64406526     0.05400
C1106       C  0.33741976  0.60712588  0.61648795    -0.09100
C1107       C  0.34176721  0.59841593  0.58808963     0.06200
C1108       C  0.34858482  0.57943860  0.58725585    -0.13500
Br1109     Br  0.30076206  0.51543821  0.60881636    -0.05600
Br1110     Br  0.42182114  0.53961118  0.61278419     0.00000
Br1111     Br  0.33573692  0.61002775  0.68301667     0.00500
Br1112     Br  0.35559191  0.56819868  0.54852433    -0.03900
Br1113     Br  0.31262058  0.46765929  0.60610511     0.00600
Br1114     Br  0.40954570  0.58743733  0.61925488    -0.03200
Br1115     Br  0.34882991  0.56269854  0.68076469    -0.04100
Br1116     Br  0.33865422  0.61277932  0.55041565    -0.00100
C1117       C  0.64430902  0.35502980  0.81592690     0.01300
C1118       C  0.63386930  0.36142118  0.84123348     0.04100
C1119       C  0.62828145  0.38107702  0.83899928    -0.11900
C1120       C  0.63415161  0.39512413  0.81200647     0.23400
C1121       C  0.64439908  0.38868824  0.78662666    -0.12500
C1122       C  0.64894495  0.36824152  0.78835570     0.04800
C1123       C  0.63160078  0.41799616  0.81203590     0.27300
C1124       C  0.60908936  0.41667027  0.80038736    -0.13200
C1125       C  0.60463606  0.43695470  0.80624862     0.05400
C1126       C  0.62236277  0.45810153  0.82440083    -0.09100
C1127       C  0.64520903  0.45969034  0.83511252     0.06200
C1128       C  0.65020305  0.44002708  0.82810281    -0.13500
Br1129     Br  0.65319137  0.40858313  0.75019622    -0.05600
Br1130     Br  0.62879659  0.34451956  0.87974216     0.00000
Br1131     Br  0.57397625  0.43554266  0.79044719     0.00500
Br1132     Br  0.68190454  0.44248660  0.84200198    -0.03900
Br1133     Br  0.66120512  0.35808206  0.75293163     0.00600
Br1134     Br  0.61348997  0.38957307  0.87342829    -0.03200
Br1135     Br  0.58397115  0.38662782  0.77780493    -0.04100
Br1136     Br  0.66858998  0.48755254  0.86180661    -0.00100
C1137       C  0.37088965  0.70016783  0.62196052     0.01300
C1138       C  0.37631809  0.71466101  0.64961437     0.04100
C1139       C  0.39705633  0.73976299  0.65133271    -0.11900
C1140       C  0.41270869  0.75017300  0.62562018     0.23400
C1141       C  0.40750471  0.73552680  0.59813146    -0.12500
C1142       C  0.38641681  0.71064600  0.59617837     0.04800
C1143       C  0.43400636  0.77688402  0.62693157     0.27300
C1144       C  0.43003821  0.79607391  0.61540605    -0.13200
C1145       C  0.45036379  0.82135360  0.61560458     0.05400
C1146       C  0.47467221  0.82756898  0.62754279    -0.09100
C1147       C  0.47851892  0.80843708  0.63964154     0.06200
C1148       C  0.45817738  0.78308852  0.63934246    -0.13500
Br1149     Br  0.42920075  0.74975513  0.56310648    -0.05600
Br1150     Br  0.35555652  0.69993740  0.68523260     0.00000
Br1151     Br  0.44493390  0.84751091  0.59938890     0.00500
Br1152     Br  0.46303844  0.75691955  0.65674511    -0.03900
Br1153     Br  0.37812574  0.69124812  0.55784033     0.00600
Br1154     Br  0.40384694  0.76010884  0.68865241    -0.03200
Br1155     Br  0.39646217  0.78770103  0.60017211    -0.04100
Br1156     Br  0.51117740  0.81715032  0.65812070    -0.00100
C1157       C  0.61900961  0.26491847  0.83294686     0.01300
C1158       C  0.61698397  0.25442738  0.86203429     0.04100
C1159       C  0.59860932  0.22889968  0.86648248    -0.11900
C1160       C  0.58135108  0.21435965  0.84242482     0.23400
C1161       C  0.58328758  0.22483506  0.81340363    -0.12500
C1162       C  0.60250475  0.24998428  0.80846698     0.04800
C1163       C  0.56052816  0.18833898  0.84806629     0.27300
C1164       C  0.56344670  0.16742965  0.83986600    -0.13200
C1165       C  0.54341822  0.14267641  0.84507001     0.05400
C1166       C  0.52084207  0.13897775  0.85914903    -0.09100
C1167       C  0.51806046  0.15990020  0.86773312     0.06200
C1168       C  0.53781668  0.18461411  0.86183473    -0.13500
Br1169     Br  0.55952470  0.20469540  0.78057611    -0.05600
Br1170     Br  0.63859207  0.27524810  0.89612159     0.00000
Br1171     Br  0.54690047  0.11380066  0.83326437     0.00500
Br1172     Br  0.53378168  0.21343128  0.87218575    -0.03900
Br1173     Br  0.60683585  0.26369372  0.76796667     0.00600
Br1174     Br  0.59714666  0.21362154  0.90531809    -0.03200
Br1175     Br  0.59495080  0.17286311  0.82178193    -0.04100
Br1176     Br  0.48706034  0.15465816  0.88708759    -0.00100
C1177       C  0.52474261  0.95240573  0.53554587     0.01300
C1178       C  0.53624755  0.96999498  0.51185963     0.04100
C1179       C  0.52138894  0.97685009  0.49381082    -0.11900
C1180       C  0.49473272  0.96535022  0.49810170     0.23400
C1181       C  0.48288229  0.94669582  0.52035070    -0.12500
C1182       C  0.49784917  0.94040153  0.53925010     0.04800
C1183       C  0.47987024  0.97418750  0.97996540     0.27300
C1184       C  0.47710279  0.99443413  0.99150155    -0.13200
C1185       C  0.46706485  0.00586091  0.97250532     0.05400
C1186       C  0.46107564  0.99811927  0.94104178    -0.09100
C1187       C  0.46222751  0.97656985  0.93026681     0.06200
C1188       C  0.47113712  0.96439489  0.94991269    -0.13500
Br1189     Br  0.44613078  0.92992097  0.52473808    -0.05600
Br1190     Br  0.57253859  0.98535551  0.50400206     0.00000
Br1191     Br  0.46172802  0.03230046  0.99015921     0.00500
Br1192     Br  0.47294594  0.93512076  0.93537922    -0.03900
Br1193     Br  0.48109213  0.91423365  0.56876499     0.00600
Br1194     Br  0.53784008  0.00299938  0.96382866    -0.03200
Br1195     Br  0.48881934  0.00755436  0.53282104    -0.04100
Br1196     Br  0.45423198  0.96489580  0.88810389    -0.00100
C1197       C  0.45555217  0.00790314  0.78934803     0.01300
C1198       C  0.45291464  0.98349586  0.78999391     0.04100
C1199       C  0.46827866  0.97751290  0.77128553    -0.11900
C1200       C  0.48549430  0.99538601  0.75071996     0.23400
C1201       C  0.48837161  0.01979083  0.75011397    -0.12500
C1202       C  0.47408516  0.02632140  0.77008019     0.04800
C1203       C  0.49967861  0.98794524  0.72893557     0.27300
C1204       C  0.52347855  0.99059040  0.73767942    -0.13200
C1205       C  0.53536619  0.98080228  0.71830323     0.05400
C1206       C  0.52373896  0.96884474  0.68985325    -0.09100
C1207       C  0.50078390  0.96775551  0.68027045     0.06200
C1208       C  0.48854848  0.97684930  0.70001830    -0.13500
Br1209     Br  0.51164102  0.04404384  0.72148986    -0.05600
Br1210     Br  0.42722895  0.95745853  0.81480379     0.00000
Br1211     Br  0.56777502  0.98412476  0.73038478     0.00500
Br1212     Br  0.45579987  0.97295669  0.68822994    -0.03900
Br1213     Br  0.48138968  0.06105257  0.77248247     0.00600
Br1214     Br  0.46551776  0.94456884  0.77329342    -0.03200
Br1215     Br  0.53928465  0.00700637  0.77659509    -0.04100
Br1216     Br  0.48520934  0.95253104  0.64077214    -0.00100
C1217       C  0.15119816  0.62545032  0.62566691     0.01300
C1218       C  0.17240016  0.64791671  0.63784025     0.04100
C1219       C  0.19747996  0.65210305  0.63437380    -0.11900
C1220       C  0.20137184  0.63334326  0.61981736     0.23400
C1221       C  0.18013456  0.61092356  0.60748538    -0.12500
C1222       C  0.15515115  0.60709760  0.61019122     0.04800
C1223       C  0.22752110  0.63645887  0.61896619     0.27300
C1224       C  0.24155450  0.64308095  0.59152980    -0.13200
C1225       C  0.26587758  0.64506413  0.59062591     0.05400
C1226       C  0.27648402  0.64092425  0.61728599    -0.09100
C1227       C  0.26271118  0.63480646  0.64484023     0.06200
C1228       C  0.23814517  0.63220657  0.64558254    -0.13500
Br1229     Br  0.18523769  0.58504638  0.58781210    -0.05600
Br1230     Br  0.16686439  0.67198152  0.66132608     0.00000
Br1231     Br  0.28474432  0.65338058  0.55287720     0.00500
Br1232     Br  0.21895673  0.62267803  0.68309882    -0.03900
Br1233     Br  0.12617107  0.57642652  0.59320427     0.00600
Br1234     Br  0.22653187  0.68332309  0.65005974    -0.03200
Br1235     Br  0.22751769  0.64970859  0.55533129    -0.04100
Br1236     Br  0.27804967  0.63102463  0.68189151    -0.00100
C1237       C  0.83715455  0.35386083  0.85657973     0.01300
C1238       C  0.83385511  0.36959468  0.83613275     0.04100
C1239       C  0.80904740  0.36496779  0.82917566    -0.11900
C1240       C  0.78761372  0.34447746  0.84248407     0.23400
C1241       C  0.79092057  0.32859572  0.86271119    -0.12500
C1242       C  0.81574761  0.33360671  0.87022977     0.04800
C1243       C  0.76163316  0.34035378  0.83659929     0.27300
C1244       C  0.75138935  0.35103041  0.85716091    -0.13200
C1245       C  0.72598825  0.34560334  0.85313098     0.05400
C1246       C  0.71109349  0.33017287  0.82785556    -0.09100
C1247       C  0.72161456  0.31999761  0.80682444     0.06200
C1248       C  0.74686013  0.32500125  0.81131981    -0.13500
Br1249     Br  0.76138173  0.30018279  0.88029521    -0.05600
Br1250     Br  0.86340846  0.39780651  0.81835684     0.00000
Br1251     Br  0.71108943  0.35771296  0.88363255     0.00500
Br1252     Br  0.76122088  0.31058127  0.78327504    -0.03900
Br1253     Br  0.82055617  0.31377130  0.90061838     0.00600
Br1254     Br  0.80427595  0.38683642  0.80193747    -0.03200
Br1255     Br  0.77216741  0.37276623  0.89115313    -0.04100
Br1256     Br  0.70145461  0.29910516  0.77194900    -0.00100
C1257       C  0.97009252  0.43664138  0.94488465     0.01300
C1258       C  0.99514627  0.44642870  0.95704340     0.04100
C1259       C  0.00531728  0.46713104  0.97838095    -0.11900
C1260       C  0.99060348  0.47830285  0.98717914     0.23400
C1261       C  0.96565737  0.46864954  0.97480620    -0.12500
C1262       C  0.95545850  0.44795207  0.95364716     0.04800
C1263       C  0.00143358  0.50081042  0.00855884     0.27300
C1264       C  0.99346798  0.49808662  0.53933081    -0.13200
C1265       C  0.00053097  0.51974923  0.55833456     0.05400
C1266       C  0.01728480  0.54444710  0.54730348    -0.09100
C1267       C  0.02671515  0.54678642  0.51697664     0.06200
C1268       C  0.01803462  0.52512367  0.99743395    -0.13500
Br1269     Br  0.94551261  0.48402519  0.98673668    -0.05600
Br1270     Br  0.01517502  0.43098629  0.94525222     0.00000
Br1271     Br  0.98486459  0.51470817  0.59824806     0.00500
Br1272     Br  0.02790004  0.52868140  0.95482457    -0.03900
Br1273     Br  0.92187561  0.43612437  0.93540687     0.00600
Br1274     Br  0.03921429  0.48002801  0.99599446    -0.03200
Br1275     Br  0.97170835  0.46444502  0.55472044    -0.04100
Br1276     Br  0.05216283  0.57933423  0.00150495    -0.00100
C1277       C  0.96890431  0.42803008  0.79071725     0.01300
C1278       C  0.96801235  0.44926792  0.80373436     0.04100
C1279       C  0.97600905  0.47129514  0.78662603    -0.11900
C1280       C  0.98331318  0.47184863  0.75590705     0.23400
C1281       C  0.98260790  0.45039729  0.74210179    -0.12500
C1282       C  0.97638479  0.42894516  0.75950460     0.04800
C1283       C  0.99427924  0.49572075  0.73873600     0.27300
C1284       C  0.97821579  0.50264223  0.72327342    -0.13200
C1285       C  0.98901521  0.52441403  0.70522105     0.05400
C1286       C  0.01591535  0.53874428  0.70167090    -0.09100
C1287       C  0.03187314  0.53140418  0.71685087     0.06200
C1288       C  0.02110836  0.51049316  0.73608180    -0.13500
Br1289     Br  0.99116572  0.45105158  0.69915797    -0.05600
Br1290     Br  0.95506727  0.44876216  0.84446276     0.00000
Br1291     Br  0.96686610  0.53473902  0.68606643     0.00500
Br1292     Br  0.04309648  0.50150539  0.75835517    -0.03900
Br1293     Br  0.98050865  0.40227661  0.74002850     0.00600
Br1294     Br  0.97787555  0.50129064  0.80542381    -0.03200
Br1295     Br  0.94143671  0.48183284  0.72624683    -0.04100
Br1296     Br  0.06829470  0.54809289  0.70913825    -0.00100
C1297       C  0.02410749  0.38500121  0.85459636     0.01300
C1298       C  0.04245446  0.39706068  0.83152680     0.04100
C1299       C  0.06633693  0.39821094  0.83332062    -0.11900
C1300       C  0.07239036  0.38813114  0.85866381     0.23400
C1301       C  0.05451515  0.37683901  0.88222978    -0.12500
C1302       C  0.03034209  0.37508272  0.88014244     0.04800
C1303       C  0.09754307  0.38928823  0.86042381     0.27300
C1304       C  0.09959942  0.36811162  0.85071768    -0.13200
C1305       C  0.12341592  0.36914278  0.85270252     0.05400
C1306       C  0.14522740  0.39141712  0.86413425    -0.09100
C1307       C  0.14338209  0.41291128  0.87272107     0.06200
C1308       C  0.11950136  0.41174808  0.87124188    -0.13500
Br1309     Br  0.06298710  0.36301611  0.91685777    -0.05600
Br1310     Br  0.03531674  0.41275869  0.79781405     0.00000
Br1311     Br  0.12637562  0.34026550  0.83934323     0.00500
Br1312     Br  0.11683428  0.44099951  0.88357751    -0.03900
Br1313     Br  0.00528986  0.35738962  0.91130390     0.00600
Br1314     Br  0.09056780  0.41279880  0.80055398    -0.03200
Br1315     Br  0.06985800  0.33794848  0.83410161    -0.04100
Br1316     Br  0.17384879  0.44436317  0.88486203    -0.00100
C1317       C  0.31341702  0.42204227  0.53820018     0.01300
C1318       C  0.31362185  0.43843006  0.51559772     0.04100
C1319       C  0.29293211  0.42999422  0.99470978    -0.11900
C1320       C  0.27070201  0.40609834  0.99813962     0.23400
C1321       C  0.26959224  0.39042819  0.02210057    -0.12500
C1322       C  0.29123258  0.39797034  0.54148842     0.04800
C1323       C  0.24887571  0.39790507  0.97609666     0.27300
C1324       C  0.23454961  0.41040181  0.97676552    -0.13200
C1325       C  0.21918269  0.40839351  0.95117973     0.05400
C1326       C  0.21651063  0.39217906  0.92574380    -0.09100
C1327       C  0.22775901  0.37666785  0.92757669     0.06200
C1328       C  0.24483452  0.38038550  0.95192824    -0.13500
Br1329     Br  0.23846145  0.35856299  0.02815622    -0.05600
Br1330     Br  0.34161522  0.47319230  0.51386436     0.00000
Br1331     Br  0.20439452  0.43007725  0.95042149     0.00500
Br1332     Br  0.26431462  0.36307957  0.95074920    -0.03900
Br1333     Br  0.29067941  0.37469994  0.57109726     0.00600
Br1334     Br  0.29531609  0.45113144  0.96096118    -0.03200
Br1335     Br  0.23779872  0.43189088  0.01198578    -0.04100
Br1336     Br  0.21984768  0.35022107  0.89676460    -0.00100
C1337       C  0.22334789  0.40229198  0.81226632     0.01300
C1338       C  0.22075947  0.38028685  0.79736211     0.04100
C1339       C  0.23599696  0.38249411  0.77195055    -0.11900
C1340       C  0.25355165  0.40671909  0.76112361     0.23400
C1341       C  0.25506148  0.42863304  0.77496465    -0.12500
C1342       C  0.24006052  0.42642540  0.80067008     0.04800
C1343       C  0.27180037  0.40924438  0.73684973     0.27300
C1344       C  0.29675313  0.41493139  0.74535260    -0.13200
C1345       C  0.31411064  0.41688487  0.72267281     0.05400
C1346       C  0.30620392  0.41191658  0.69144776    -0.09100
C1347       C  0.28128647  0.40644511  0.68288738     0.06200
C1348       C  0.26423980  0.40552416  0.70557730    -0.13500
Br1349     Br  0.27810971  0.46161707  0.75895206    -0.05600
Br1350     Br  0.19643658  0.34714469  0.81202848     0.00000
Br1351     Br  0.34912240  0.42736766  0.73441561     0.00500
Br1352     Br  0.23038882  0.39881456  0.69410061    -0.03900
Br1353     Br  0.24264084  0.45635625  0.82042402     0.00600
Br1354     Br  0.23345360  0.35243134  0.75253822    -0.03200
Br1355     Br  0.30689749  0.41935972  0.78826686    -0.04100
Br1356     Br  0.26993215  0.39872099  0.64048928    -0.00100
C1357       C  0.83302909  0.56343627  0.58445926     0.01300
C1358       C  0.83534472  0.54373261  0.59779449     0.04100
C1359       C  0.85981516  0.54733384  0.60516705    -0.11900
C1360       C  0.88216375  0.57025033  0.59821545     0.23400
C1361       C  0.87987221  0.59011398  0.58547377    -0.12500
C1362       C  0.85542283  0.58685840  0.57899958     0.04800
C1363       C  0.90803406  0.57284693  0.60197760     0.27300
C1364       C  0.92242796  0.58275446  0.62961658    -0.13200
C1365       C  0.94783571  0.58729183  0.63179303     0.05400
C1366       C  0.95894209  0.58191547  0.60626418    -0.09100
C1367       C  0.94371321  0.57014851  0.57949245     0.06200
C1368       C  0.91854479  0.56597532  0.57722492    -0.13500
Br1369     Br  0.91040229  0.62178704  0.57673179    -0.05600
Br1370     Br  0.80508464  0.51128199  0.60447966     0.00000
Br1371     Br  0.96769760  0.60197242  0.66919801     0.00500
Br1372     Br  0.89854053  0.55144135  0.53978194    -0.03900
Br1373     Br  0.85265887  0.61482908  0.56345755     0.00600
Br1374     Br  0.86291729  0.52092236  0.62477421    -0.03200
Br1375     Br  0.90743169  0.59074590  0.66407142    -0.04100
Br1376     Br  0.95700903  0.55884207  0.54612877    -0.00100
C1377       C  0.66653065  0.54829996  0.73972289     0.01300
C1378       C  0.67263317  0.56523105  0.71519508     0.04100
C1379       C  0.68684269  0.56417621  0.69016969    -0.11900
C1380       C  0.69656437  0.54743122  0.69013252     0.23400
C1381       C  0.69078934  0.53065305  0.71441031    -0.12500
C1382       C  0.67552612  0.53073493  0.73883335     0.04800
C1383       C  0.71445667  0.54891324  0.66572297     0.27300
C1384       C  0.70626666  0.52998356  0.64215426    -0.13200
C1385       C  0.72352777  0.53158356  0.61935523     0.05400
C1386       C  0.74873303  0.55283742  0.61908508    -0.09100
C1387       C  0.75655247  0.57212989  0.64221129     0.06200
C1388       C  0.73978631  0.56971034  0.66598551    -0.13500
Br1389     Br  0.70418315  0.50766760  0.71429444    -0.05600
Br1390     Br  0.66360842  0.59158491  0.71638136     0.00000
Br1391     Br  0.71259948  0.50416075  0.58909380     0.00500
Br1392     Br  0.75155222  0.59495947  0.69916386    -0.03900
Br1393     Br  0.66674328  0.50584620  0.76992106     0.00600
Br1394     Br  0.69330632  0.58592967  0.65573399    -0.03200
Br1395     Br  0.67126227  0.50203515  0.64091388    -0.04100
Br1396     Br  0.78952573  0.60289155  0.64030462    -0.00100
C1397       C  0.76653403  0.55633629  0.50754453     0.01300
C1398       C  0.74854830  0.53248605  0.49431029     0.04100
C1399       C  0.73324361  0.53109988  0.96898203    -0.11900
C1400       C  0.73564945  0.55353237  0.95713303     0.23400
C1401       C  0.75574475  0.57735459  0.96803240    -0.12500
C1402       C  0.77121271  0.57871289  0.49317702     0.04800
C1403       C  0.71489114  0.55203831  0.93688332     0.27300
C1404       C  0.71715182  0.55291223  0.90470095    -0.13200
C1405       C  0.69681830  0.55054045  0.88589129     0.05400
C1406       C  0.67328061  0.54552093  0.89921866    -0.09100
C1407       C  0.67193467  0.54645174  0.93172835     0.06200
C1408       C  0.69252424  0.54949847  0.95034156    -0.13500
Br1409     Br  0.76081900  0.60801582  0.94973904    -0.05600
Br1410     Br  0.74386292  0.50185413  0.51235783     0.00000
Br1411     Br  0.70154394  0.55325360  0.84198934     0.00500
Br1412     Br  0.68955587  0.54870118  0.49463584    -0.03900
Br1413     Br  0.79774135  0.61124761  0.50938686     0.00600
Br1414     Br  0.70778231  0.49847420  0.95166893    -0.03200
Br1415     Br  0.74748758  0.55546086  0.88651424    -0.04100
Br1416     Br  0.64217723  0.54435242  0.95130740    -0.00100
C1417       C  0.58937827  0.61200006  0.83153551     0.01300
C1418       C  0.59811868  0.62796200  0.85820116     0.04100
C1419       C  0.59511626  0.64950387  0.86057594    -0.11900
C1420       C  0.58371647  0.65544592  0.83617219     0.23400
C1421       C  0.57441519  0.63916599  0.80986701    -0.12500
C1422       C  0.57691954  0.61737171  0.80772766     0.04800
C1423       C  0.58214826  0.67915579  0.83793556     0.27300
C1424       C  0.55935908  0.67832699  0.84730366    -0.13200
C1425       C  0.55840863  0.70096389  0.85052537     0.05400
C1426       C  0.58022614  0.72460475  0.84423952    -0.09100
C1427       C  0.60270500  0.72528238  0.83366635     0.06200
C1428       C  0.60364620  0.70264967  0.83056986    -0.13500
Br1429     Br  0.55891434  0.64721076  0.77634159    -0.05600
Br1430     Br  0.61567473  0.62132806  0.89063252     0.00000
Br1431     Br  0.52687898  0.69947769  0.86247598     0.00500
Br1432     Br  0.63438537  0.70369171  0.81605676    -0.03900
Br1433     Br  0.56270618  0.59449787  0.77227001     0.00600
Br1434     Br  0.60720589  0.67140880  0.89695510    -0.03200
Br1435     Br  0.52937881  0.64603891  0.85540690    -0.04100
Br1436     Br  0.63252086  0.75730320  0.82402848    -0.00100
C1437       C  0.57422076  0.78980242  0.91244946     0.01300
C1438       C  0.55269129  0.79278320  0.91748554     0.04100
C1439       C  0.55130016  0.80531786  0.94442494    -0.11900
C1440       C  0.57092892  0.81416191  0.96713564     0.23400
C1441       C  0.59114367  0.80900589  0.96350941    -0.12500
C1442       C  0.59326771  0.79761049  0.93585439     0.04800
C1443       C  0.57181396  0.83147078  0.99264142     0.27300
C1444       C  0.58818207  0.85791227  0.99044988    -0.13200
C1445       C  0.58729714  0.87478084  0.01249712     0.05400
C1446       C  0.56903239  0.86555462  0.53624184    -0.09100
C1447       C  0.55312798  0.83880220  0.03888113     0.06200
C1448       C  0.55513939  0.82195707  0.01766207    -0.13500
Br1449     Br  0.61624318  0.81832782  0.99627496    -0.05600
Br1450     Br  0.52510878  0.78002721  0.88719794     0.00000
Br1451     Br  0.61216614  0.91078593  0.51037691     0.00500
Br1452     Br  0.53461796  0.78567940  0.02223796    -0.03900
Br1453     Br  0.62353967  0.79509266  0.92903383     0.00600
Br1454     Br  0.52300580  0.81143686  0.94955513    -0.03200
Br1455     Br  0.61122317  0.87115750  0.95626461    -0.04100
Br1456     Br  0.52693109  0.82481880  0.56951144    -0.00100
C1457       C  0.58071764  0.79999848  0.79927618     0.01300
C1458       C  0.55786184  0.79212234  0.78220270     0.04100
C1459       C  0.55699704  0.80787964  0.75964953    -0.11900
C1460       C  0.57902049  0.83147481  0.75393500     0.23400
C1461       C  0.60225904  0.83861897  0.76970324    -0.12500
C1462       C  0.60305241  0.82301362  0.79252689     0.04800
C1463       C  0.57707295  0.84948136  0.73311287     0.27300
C1464       C  0.58176335  0.84910470  0.70156853    -0.13200
C1465       C  0.57725026  0.86433701  0.68142335     0.05400
C1466       C  0.56688925  0.87945883  0.69273422    -0.09100
C1467       C  0.56504436  0.88173633  0.72515250     0.06200
C1468       C  0.56988067  0.86662713  0.74503293    -0.13500
Br1469     Br  0.63272800  0.87015755  0.76052445    -0.05600
Br1470     Br  0.52734063  0.76041734  0.79096098     0.00000
Br1471     Br  0.58518906  0.86328284  0.63862221     0.00500
Br1472     Br  0.56594305  0.86868414  0.78891229    -0.03900
Br1473     Br  0.63455717  0.83335969  0.81514996     0.00600
Br1474     Br  0.52537703  0.79767757  0.73734162    -0.03200
Br1475     Br  0.59345555  0.82670674  0.68604687    -0.04100
Br1476     Br  0.55680523  0.90605333  0.74335506    -0.00100
C1477       C  0.62338471  0.01461642  0.59641241     0.01300
C1478       C  0.64748540  0.02126469  0.60942571     0.04100
C1479       C  0.66774810  0.04666491  0.60943863    -0.11900
C1480       C  0.66458570  0.06525141  0.59444587     0.23400
C1481       C  0.64047495  0.05851002  0.58119382    -0.12500
C1482       C  0.61962559  0.03353895  0.58352743     0.04800
C1483       C  0.68675469  0.09165618  0.59238747     0.27300
C1484       C  0.68773125  0.11172060  0.61040244    -0.13200
C1485       C  0.70899291  0.13652001  0.60872558     0.05400
C1486       C  0.73075087  0.14095386  0.59164804    -0.09100
C1487       C  0.72990163  0.12056809  0.57418914     0.06200
C1488       C  0.70741514  0.09651461  0.57316673    -0.13500
Br1489     Br  0.63633504  0.08314503  0.55861549    -0.05600
Br1490     Br  0.65266132  0.99542316  0.62720947     0.00000
Br1491     Br  0.70743608  0.16444172  0.62860006     0.00500
Br1492     Br  0.70472920  0.07010579  0.54518066    -0.03900
Br1493     Br  0.58581388  0.02544773  0.56994069     0.00600
Br1494     Br  0.69985787  0.05604282  0.63011712    -0.03200
Br1495     Br  0.66027467  0.10506960  0.63817873    -0.04100
Br1496     Br  0.76001877  0.12446184  0.55367466    -0.00100
C1497       C  0.80149015  0.21553297  0.65202945     0.01300
C1498       C  0.80998157  0.20466785  0.67421374     0.04100
C1499       C  0.82417775  0.21922582  0.70031260    -0.11900
C1500       C  0.83115975  0.24501737  0.70347229     0.23400
C1501       C  0.82261649  0.25583503  0.68148050    -0.12500
C1502       C  0.80689647  0.24086063  0.65664019     0.04800
C1503       C  0.84757096  0.26105423  0.72974174     0.27300
C1504       C  0.83665128  0.26805577  0.75384926    -0.13200
C1505       C  0.85250037  0.28643860  0.77628686     0.05400
C1506       C  0.87948568  0.29675175  0.77589247    -0.09100
C1507       C  0.89011278  0.28803046  0.75284813     0.06200
C1508       C  0.87427403  0.27087757  0.72939652    -0.13500
Br1509     Br  0.83342645  0.29158305  0.68469929    -0.05600
Br1510     Br  0.80376677  0.17049480  0.66824094     0.00000
Br1511     Br  0.83670639  0.29879070  0.80512257     0.00500
Br1512     Br  0.88925577  0.26155136  0.69595692    -0.03900
Br1513     Br  0.79216580  0.25504883  0.62952844     0.00600
Br1514     Br  0.83462413  0.20413168  0.73154063    -0.03200
Br1515     Br  0.79976595  0.25287560  0.75529427    -0.04100
Br1516     Br  0.92631278  0.29879576  0.75322473    -0.00100
C1517       C  0.87936538  0.30870137  0.93186386     0.01300
C1518       C  0.86139792  0.28404107  0.91996224     0.04100
C1519       C  0.84771251  0.26396286  0.94008030    -0.11900
C1520       C  0.85086130  0.26855197  0.97205743     0.23400
C1521       C  0.86977812  0.29249496  0.98396639    -0.12500
C1522       C  0.88451234  0.31228357  0.96396005     0.04800
C1523       C  0.83315511  0.24889605  0.99329742     0.27300
C1524       C  0.81097442  0.24909844  0.00315511    -0.13200
C1525       C  0.79564307  0.23241555  0.52582687     0.05400
C1526       C  0.80223718  0.21536293  0.53853242    -0.09100
C1527       C  0.82369197  0.21430115  0.52761786     0.06200
C1528       C  0.83918852  0.23116376  0.00515253    -0.13500
Br1529     Br  0.87492299  0.29814961  0.52792672    -0.05600
Br1530     Br  0.85340161  0.27747402  0.87655863     0.00000
Br1531     Br  0.76649588  0.23410319  0.54114032     0.00500
Br1532     Br  0.86944828  0.23085358  0.99153566    -0.03900
Br1533     Br  0.91233076  0.34393121  0.98084354     0.00600
Br1534     Br  0.82400803  0.23012780  0.92410865    -0.03200
Br1535     Br  0.80259029  0.27325011  0.98669621    -0.04100
Br1536     Br  0.83233923  0.19056971  0.54474957    -0.00100
C1537       C  0.35621001  0.95926376  0.85706013     0.01300
C1538       C  0.34182691  0.95436114  0.88428063     0.04100
C1539       C  0.31925504  0.93071547  0.88779411    -0.11900
C1540       C  0.31049748  0.91194106  0.86401788     0.23400
C1541       C  0.32457257  0.91671829  0.83681871    -0.12500
C1542       C  0.34720015  0.94024054  0.83318413     0.04800
C1543       C  0.28594340  0.88748701  0.86697853     0.27300
C1544       C  0.28624097  0.86508960  0.87370453    -0.13200
C1545       C  0.26306841  0.84167199  0.87440550     0.05400
C1546       C  0.23940509  0.84066871  0.86954360    -0.09100
C1547       C  0.23905272  0.86320469  0.86393283     0.06200
C1548       C  0.26227390  0.88645242  0.86194198    -0.13500
Br1549     Br  0.31239394  0.89094113  0.80417155    -0.05600
Br1550     Br  0.35127230  0.98067557  0.91578606     0.00000
Br1551     Br  0.26378692  0.81076055  0.88069222     0.00500
Br1552     Br  0.26175802  0.91679533  0.85132894    -0.03900
Br1553     Br  0.36522002  0.94581930  0.79493689     0.00600
Br1554     Br  0.29987758  0.92402946  0.92506346    -0.03200
Br1555     Br  0.31850922  0.86652332  0.88148151    -0.04100
Br1556     Br  0.20668960  0.86225813  0.85966747    -0.00100
C1557       C  0.10288865  0.67635352  0.54034799     0.01300
C1558       C  0.09025522  0.68162457  0.01638775     0.04100
C1559       C  0.10464011  0.70008887  0.99477435    -0.11900
C1560       C  0.13154513  0.71448431  0.99772260     0.23400
C1561       C  0.14412584  0.71057661  0.02246248    -0.12500
C1562       C  0.13005505  0.69119404  0.54329450     0.04800
C1563       C  0.14673033  0.73225188  0.97335487     0.27300
C1564       C  0.15768856  0.72421375  0.95033174    -0.13200
C1565       C  0.17147325  0.74052852  0.92659792     0.05400
C1566       C  0.17293716  0.76434806  0.92460586    -0.09100
C1567       C  0.16208295  0.77245990  0.94775200     0.06200
C1568       C  0.14952735  0.75665457  0.97249711    -0.13500
Br1569     Br  0.18098455  0.73151437  0.02699653    -0.05600
Br1570     Br  0.05316824  0.66440296  0.01300823     0.00000
Br1571     Br  0.18844259  0.73018469  0.89683555     0.00500
Br1572     Br  0.13541832  0.76797750  0.00477290    -0.03900
Br1573     Br  0.14886606  0.68424742  0.57388083     0.00600
Br1574     Br  0.08758991  0.70519396  0.96027309    -0.03200
Br1575     Br  0.15259807  0.69024711  0.95047619    -0.04100
Br1576     Br  0.16271380  0.80431928  0.94442782    -0.00100
C1577       C  0.16788159  0.76611648  0.81179706     0.01300
C1578       C  0.17837087  0.75269277  0.79682313     0.04100
C1579       C  0.16424959  0.73458081  0.77335197    -0.11900
C1580       C  0.13995008  0.73040459  0.76406712     0.23400
C1581       C  0.13005098  0.74479971  0.77788045    -0.12500
C1582       C  0.14377789  0.76227981  0.80215692     0.04800
C1583       C  0.12437620  0.70971449  0.74112777     0.27300
C1584       C  0.12822387  0.71411561  0.70952490    -0.13200
C1585       C  0.11662538  0.69363337  0.68790298     0.05400
C1586       C  0.10063324  0.66846259  0.69792254    -0.09100
C1587       C  0.09481548  0.66471089  0.72960935     0.06200
C1588       C  0.10717691  0.68514340  0.75110325    -0.13500
Br1589     Br  0.09727053  0.73974191  0.76425822    -0.05600
Br1590     Br  0.21127434  0.75772246  0.81009767     0.00000
Br1591     Br  0.12440910  0.70076683  0.64507771     0.00500
Br1592     Br  0.10162026  0.67938749  0.79458260    -0.03900
Br1593     Br  0.12908057  0.78002645  0.82338897     0.00600
Br1594     Br  0.17736761  0.71418536  0.75523855    -0.03200
Br1595     Br  0.15046793  0.74833371  0.69624213    -0.04100
Br1596     Br  0.06917514  0.63189531  0.74405013    -0.00100
C1597       C  0.40691549  0.24090758  0.60060629     0.01300
C1598       C  0.42525535  0.26461177  0.61413744     0.04100
C1599       C  0.42040608  0.28492987  0.61532193    -0.11900
C1600       C  0.39784804  0.28207979  0.60166132     0.23400
C1601       C  0.37992199  0.25876124  0.58724520    -0.12500
C1602       C  0.38424530  0.23810325  0.58702402     0.04800
C1603       C  0.39252505  0.30335142  0.60320190     0.27300
C1604       C  0.37562638  0.30340402  0.62530631    -0.13200
C1605       C  0.36929921  0.32269416  0.62586080     0.05400
C1606       C  0.38180249  0.34358588  0.60611114    -0.09100
C1607       C  0.39917790  0.34357685  0.58415935     0.06200
C1608       C  0.40385180  0.32310612  0.58223670    -0.13500
Br1609     Br  0.34905467  0.25505621  0.56852935    -0.05600
Br1610     Br  0.45754513  0.26973313  0.63004061     0.00000
Br1611     Br  0.34195964  0.31885210  0.65246610     0.00500
Br1612     Br  0.42597417  0.32198250  0.55098005    -0.03900
Br1613     Br  0.35833909  0.20571657  0.56940859     0.00600
Br1614     Br  0.44416840  0.31645985  0.63659862    -0.03200
Br1615     Br  0.36151918  0.27706889  0.65528600    -0.04100
Br1616     Br  0.41796083  0.37176293  0.55747265    -0.00100
C1617       C  0.42763008  0.10314166  0.77693111     0.01300
C1618       C  0.43074393  0.10069722  0.74496924     0.04100
C1619       C  0.43073335  0.11828088  0.72458045    -0.11900
C1620       C  0.42623312  0.13763052  0.73547339     0.23400
C1621       C  0.42312042  0.14026248  0.76711552    -0.12500
C1622       C  0.42476388  0.12370801  0.78794269     0.04800
C1623       C  0.42327494  0.15399426  0.71298078     0.27300
C1624       C  0.44495949  0.17621411  0.70284612    -0.13200
C1625       C  0.44274989  0.18874273  0.67722507     0.05400
C1626       C  0.41889272  0.17901142  0.66175499    -0.09100
C1627       C  0.39685221  0.15814305  0.67354744     0.06200
C1628       C  0.39904247  0.14561624  0.69908971    -0.13500
Br1629     Br  0.41541752  0.16590977  0.78151365    -0.05600
Br1630     Br  0.43573993  0.07376276  0.72846554     0.00000
Br1631     Br  0.47245665  0.21864826  0.66254635     0.00500
Br1632     Br  0.36909423  0.11616715  0.71424214    -0.03900
Br1633     Br  0.42224327  0.12923411  0.83127550     0.00600
Br1634     Br  0.43654694  0.11580219  0.68127983    -0.03200
Br1635     Br  0.47779205  0.18863006  0.72320089    -0.04100
Br1636     Br  0.36378581  0.14637171  0.65410589    -0.00100
C1637       C  0.43751263  0.09861049  0.93396801     0.01300
C1638       C  0.41718134  0.10315674  0.92715558     0.04100
C1639       C  0.41230242  0.11897130  0.94690375    -0.11900
C1640       C  0.42652077  0.12895572  0.97458023     0.23400
C1641       C  0.44578144  0.12334594  0.98231954    -0.12500
C1642       C  0.45176736  0.10887134  0.96193130     0.04800
C1643       C  0.42076958  0.14430323  0.49667565     0.27300
C1644       C  0.43777785  0.17074691  0.49989691    -0.13200
C1645       C  0.43601229  0.18454109  0.52535596     0.05400
C1646       C  0.41656319  0.17207579  0.54713688    -0.09100
C1647       C  0.39823652  0.14602078  0.54233454     0.06200
C1648       C  0.40067039  0.13209502  0.51757644    -0.13500
Br1649     Br  0.46383620  0.13536744  0.52144569    -0.05600
Br1650     Br  0.39437725  0.08599969  0.89249035     0.00000
Br1651     Br  0.46166196  0.21996809  0.53157676     0.00500
Br1652     Br  0.37751813  0.09586110  0.51343956    -0.03900
Br1653     Br  0.48063364  0.10471125  0.97268494     0.00600
Br1654     Br  0.38618914  0.12709333  0.93622423    -0.03200
Br1655     Br  0.46455034  0.18781086  0.97036858    -0.04100
Br1656     Br  0.36964923  0.12920735  0.56960699    -0.00100
loop_ 
_geom_bond_atom_site_label_1 
_geom_bond_atom_site_label_2 
_geom_bond_distance 
_geom_bond_site_symmetry_2 
_ccdc_geom_bond_type 
C1            C2   1.405       .  A
C1            C6   1.406       .  A
C1          C769   1.483       .  S
C2            C3   1.399       .  A
C2            H7   1.084       .  S
C3            C4   1.402       .  A
C3          C798   1.478       .  S
C4            C5   1.405       .  A
C4            H8   1.084       .  S
C5            C6   1.404       .  A
C5          C818   1.488       .  S
C6            H9   1.084       .  S
C10          C11   1.407       .  A
C10          C15   1.407       .  A
C10         C718   1.483       .  S
C11          C12   1.403       .  A
C11          H16   1.084       .  S
C12          C13   1.396       .  A
C12         C749   1.477       .  S
C13          C14   1.398       .  A
C13          H17   1.085       .  S
C14          C15   1.405       .  A
C14         C738   1.481       .  S
C15          H18   1.084       .  S
C19          C20   1.410       .  A
C19          C24   1.411       .  A
C19         C658   1.494       .  S
C20          C21   1.402       .  A
C20          H25   1.083       .  S
C21          C22   1.395       .  A
C21         C698   1.476       .  S
C22          C23   1.399       .  A
C22          H26   1.085       .  S
C23          C24   1.405       .  A
C23         C669   1.486       .  S
C24          H27   1.083       .  S
C28          C29   1.406       .  A
C28          C33   1.411       .  A
C28         C598   1.489       .  S
C29          C30   1.402       .  A
C29          H34   1.084       .  S
C30          C31   1.400       .  A
C30         C629   1.481       .  S
C31          C32   1.403       .  A
C31          H35   1.084       .  S
C32          C33   1.408       .  A
C32         C609   1.491       .  S
C33          H36   1.084       .  S
C37          C38   1.410       .  A
C37          C42   1.407       .  A
C37         C529   1.490       .  S
C38          C39   1.405       .  A
C38          H43   1.083       .  S
C39          C40   1.400       .  A
C39         C569   1.481       .  S
C40          C41   1.400       .  A
C40          H44   1.085       .  S
C41          C42   1.406       .  A
C41         C558   1.488       .  S
C42          H45   1.084       .  S
C46          C47   1.405       .  A
C46          C51   1.399       .  A
C46         C478   1.474       .  S
C47          C48   1.407       .  A
C47          H52   1.083       .  S
C48          C49   1.407       .  A
C48         C498   1.492       .  S
C49          C50   1.400       .  A
C49          H53   1.084       .  S
C50          C51   1.396       .  A
C50         C509   1.474       .  S
C51          H54   1.084       .  S
O55         Ni61   1.933       .  S
O55          C76   1.271       .  A
O56         Ni79   1.917       .  S
O56          C65   1.269       .  A
O57         Ni61   1.900       .  S
O57         Ni79   1.911       .  S
O57         Ni73   1.905       .  S
O57          H80   0.966       .  S
C58         C409   1.464       .  S
C58          O75   1.277       .  A
C58          O67   1.274       .  A
O59         Ni78   1.914       .  S
O59          C65   1.268       .  A
O60         Ni78   1.913       .  S
O60          C62   1.269       .  A
Ni61         O64   1.934       .  S
Ni61         O66   1.902       .  S
C62         C689   1.492       .  S
C62          O72   1.271       .  A
O63         Ni79   1.910       .  S
O63          C69   1.276       .  A
O64          C69   1.279       .  A
C65         C429   1.475       .  S
O66          C68   1.264       .  A
O67         Ni78   1.912       .  S
C68         C449   1.499       .  S
C68          O74   1.272       .  A
C69         C469   1.481   1_655  S
H70          O71   0.965       .  S
O71         Ni79   1.916       .  S
O71         Ni73   1.894       .  S
O71         Ni78   1.902       .  S
O72         Ni73   1.928       .  S
Ni73         O77   1.907       .  S
Ni73         O75   1.923       .  S
O74         Ni79   1.938       .  S
C76         C678   1.489       .  S
C76          O77   1.267       .  A
O81         Ni87   1.935       .  S
O81         C102   1.272       .  A
O82        Ni105   1.909       .  S
O82          C91   1.269       .  A
O83         Ni87   1.901       .  S
O83        Ni105   1.899       .  S
O83         Ni99   1.916       .  S
O83         H106   0.966       .  S
C84         C389   1.478       .  S
C84         O101   1.282       .  A
C84          O93   1.277       .  A
O85        Ni104   1.921       .  S
O85          C91   1.270       .  A
O86        Ni104   1.910       .  S
O86          C88   1.269       .  A
Ni87         O90   1.926   1_455  S
Ni87         O92   1.907       .  S
C88         C758   1.495       .  S
C88          O98   1.272       .  A
O89        Ni105   1.936   1_655  S
O89          C95   1.282       .  A
O90          C95   1.279       .  A
C91         C458   1.479       .  S
O92          C94   1.267       .  A
O93        Ni104   1.919       .  S
C94         C438   1.492       .  S
C94         O100   1.268       .  A
C95         C538   1.489       .  S
H96          O97   0.966       .  S
O97        Ni105   1.918       .  S
O97         Ni99   1.889       .  S
O97        Ni104   1.892       .  S
O98         Ni99   1.931       .  S
Ni99        O103   1.909       .  S
Ni99        O101   1.938       .  S
O100       Ni105   1.920       .  S
C102        C729   1.492       .  S
C102        O103   1.268       .  A
O107       Ni113   1.936       .  S
O107        C128   1.272       .  A
O108       Ni131   1.933       .  S
O108        C117   1.275       .  A
O109       Ni113   1.923       .  S
O109       Ni131   1.925       .  S
O109       Ni125   1.909       .  S
O109        H132   0.966       .  S
C110        C338   1.461       .  S
C110        O127   1.261       .  A
C110        O119   1.269       .  A
O111       Ni130   1.908       .  S
O111        C117   1.268       .  A
O112       Ni130   1.901       .  S
O112        C114   1.267       .  A
Ni113       O116   1.929   1_545  S
Ni113       O118   1.911       .  S
C114        C809   1.494       .  S
C114        O124   1.281       .  A
O115       Ni131   1.913   1_565  S
O115        C121   1.273       .  A
O116        C121   1.272       .  A
C117        C358   1.497   1_545  S
O118        C120   1.272       .  A
O119       Ni130   1.936       .  S
C120        C369   1.486       .  S
C120        O126   1.276       .  A
C121        C709   1.492       .  S
H122        O123   0.966       .  S
O123       Ni131   1.927       .  S
O123       Ni125   1.910       .  S
O123       Ni130   1.911       .  S
O124       Ni125   1.964       .  S
Ni125       O129   1.904       .  S
Ni125       O127   1.892       .  S
O126       Ni131   1.941       .  S
C128        C789   1.493       .  S
C128        O129   1.264       .  A
O133       Ni139   1.936       .  S
O133        C154   1.273       .  A
O134       Ni157   1.910       .  S
O134        C143   1.268       .  A
O135       Ni139   1.905       .  S
O135       Ni157   1.909       .  S
O135       Ni151   1.914       .  S
O135        H158   0.966       .  S
C136        C318   1.472       .  S
C136        O153   1.280       .  A
C136        O145   1.276       .  A
O137       Ni156   1.927       .  S
O137        C143   1.272       .  A
O138       Ni156   1.913       .  S
O138        C140   1.270       .  A
Ni139       O142   1.937       .  S
Ni139       O144   1.906       .  S
C140        C638   1.507       .  S
C140        O150   1.272       .  A
O141       Ni157   1.919       .  S
O141        C147   1.276       .  A
O142        C147   1.279       .  A
C143        C378   1.477       .  S
O144        C146   1.267       .  A
O145       Ni156   1.915       .  S
C146        C349   1.488       .  S
C146        O152   1.274       .  A
C147        C649   1.478   1_565  S
H148        O149   0.957       .  S
O149       Ni157   1.912       .  S
O149       Ni151   1.896       .  S
O149       Ni156   1.898       .  S
O150       Ni151   1.935       .  S
Ni151       O155   1.917       .  S
Ni151       O153   1.930       .  S
O152       Ni157   1.939       .  S
C154        C618   1.495       .  S
C154        O155   1.270       .  A
C159        C160   1.400       .  A
C159        C164   1.402       .  A
C159        C289   1.474       .  S
C160        C161   1.399       .  A
C160        H165   1.084       .  S
C161        C162   1.396       .  A
C161        C329   1.468       .  S
C162        C163   1.397       .  A
C162        H166   1.085       .  S
C163        C164   1.402       .  A
C163        C418   1.473       .  S
C164        H167   1.084       .  S
C168        C169   1.406       .  A
C168        C173   1.399       .  A
C168        C278   1.477       .  S
C169        C170   1.407       .  A
C169        H174   1.084       .  S
C170        C171   1.401       .  A
C170        C398   1.480       .  S
C171        C172   1.400       .  A
C171        H175   1.084       .  S
C172        C173   1.399       .  A
C172        C309   1.474       .  S
C173        H176   1.084       .  S
O177       Ni183   1.924       .  S
O177        C198   1.268       .  A
O178       Ni201   1.907       .  S
O178        C187   1.266       .  A
O179       Ni183   1.912       .  S
O179       Ni201   1.910       .  S
O179       Ni195   1.907       .  S
O179        H202   0.965       .  S
C180        C778   1.491       .  S
C180        O197   1.267       .  A
C180        O189   1.269       .  A
O181       Ni200   1.917       .  S
O181        C187   1.269       .  A
O182       Ni200   1.898       .  S
O182        C184   1.268       .  A
Ni183       O186   1.930       .  S
Ni183       O188   1.895       .  S
C184        C229   1.467       .  S
C184        O194   1.278       .  A
O185       Ni201   1.905       .  S
O185        C191   1.269       .  A
O186        C191   1.273       .  A
C187        C518   1.475       .  S
O188        C190   1.267       .  A
O189       Ni200   1.931       .  S
C190        C489   1.480       .  S
C190        O196   1.274       .  A
C191        C269   1.472       .  S
H192        O193   0.964       .  S
O193       Ni201   1.926       .  S
O193       Ni195   1.913       .  S
O193       Ni200   1.921       .  S
O194       Ni195   1.949       .  S
Ni195       O199   1.913       .  S
Ni195       O197   1.912       .  S
O196       Ni201   1.938       .  S
C198        C249   1.479       .  S
C198        O199   1.268       .  A
O203       Ni209   1.941       .  S
O203        C224   1.273       .  A
O204       Ni227   1.928       .  S
O204        C213   1.274       .  A
O205       Ni209   1.902       .  S
O205       Ni227   1.910       .  S
O205       Ni221   1.911       .  S
O205        H228   0.966       .  S
C206        C298   1.466       .  S
C206        O223   1.275       .  A
C206        O215   1.276       .  A
O207       Ni226   1.912       .  S
O207        C213   1.268       .  A
O208       Ni226   1.906       .  S
O208        C210   1.269       .  A
Ni209       O212   1.924       .  S
Ni209       O214   1.904       .  S
C210        C578   1.499       .  S
C210        O220   1.275       .  A
O211       Ni227   1.936       .  S
O211        C217   1.283       .  A
O212        C217   1.279       .  A
C213        C258   1.489       .  S
O214        C216   1.267       .  A
O215       Ni226   1.918       .  S
C216        C238   1.486       .  S
C216        O222   1.271       .  A
C217        C589   1.486       .  S
H218        O219   0.966       .  S
O219       Ni227   1.920       .  S
O219       Ni221   1.886       .  S
O219       Ni226   1.890       .  S
O220       Ni221   1.941       .  S
Ni221       O225   1.909       .  S
Ni221       O223   1.917       .  S
O222       Ni227   1.927       .  S
C224        C549   1.495       .  S
C224        O225   1.268       .  A
C229        C230   1.407       .  A
C229        C234   1.407       .  A
C230        C231   1.405       .  A
C230       Br242   1.928       .  S
C231        C232   1.412       .  A
C231       Br246   1.931       .  S
C232        C233   1.412       .  A
C232        C235   1.486       .  S
C233        C234   1.406       .  A
C233       Br241   1.931       .  S
C234       Br245   1.931       .  S
C235        C236   1.409       .  A
C235        C240   1.410       .  A
C236        C237   1.407       .  A
C236       Br247   1.934       .  S
C237        C238   1.417       .  A
C237       Br243   1.933       .  S
C238        C239   1.416       .  A
C239        C240   1.407       .  A
C239       Br248   1.933       .  S
C240       Br244   1.933       .  S
C249        C250   1.412   1_554  A
C249        C254   1.411       .  A
C250       C1079   1.408       .  A
C250       Br262   1.930       .  S
C251        C252   1.408       .  A
C251       C1078   1.408       .  A
C251       Br266   1.929       .  S
C252       C1081   1.409       .  A
C252        C255   1.486       .  S
C253        C254   1.408       .  A
C253       C1080   1.409   1_554  A
C253       Br261   1.929       .  S
C254       Br265   1.930       .  S
C255        C256   1.404       .  A
C255        C260   1.410       .  A
C256        C257   1.406       .  A
C256      Br1095   1.933       .  S
C257        C258   1.421       .  A
C257       Br263   1.932       .  S
C258        C259   1.413       .  A
C259        C260   1.411       .  A
C259       Br268   1.931       .  S
C260       Br264   1.930       .  S
Br267      C1084   1.933       .  S
C269        C270   1.409       .  A
C269        C274   1.410       .  A
C270        C271   1.409       .  A
C270       Br282   1.929       .  S
C271        C272   1.410       .  A
C271       Br286   1.928       .  S
C272        C273   1.408       .  A
C272        C275   1.483       .  S
C273        C274   1.405       .  A
C273       Br281   1.930       .  S
C274       Br285   1.930       .  S
C275        C276   1.409       .  A
C275        C280   1.409       .  A
C276        C277   1.407       .  A
C276       Br287   1.929       .  S
C277        C278   1.409       .  A
C277       Br283   1.928       .  S
C278        C279   1.409       .  A
C279        C280   1.407       .  A
C279       Br288   1.929       .  S
C280       Br284   1.929       .  S
C289        C290   1.410       .  A
C289        C294   1.410       .  A
C290        C291   1.402       .  A
C290       Br302   1.932       .  S
C291        C292   1.409       .  A
C291       Br306   1.934       .  S
C292        C293   1.407       .  A
C292        C295   1.475       .  S
C293        C294   1.406       .  A
C293       Br301   1.928       .  S
C294       Br305   1.929       .  S
C295        C296   1.409       .  A
C295        C300   1.407       .  A
C296        C297   1.407       .  A
C296       Br307   1.927       .  S
C297        C298   1.408       .  A
C297       Br303   1.928       .  S
C298        C299   1.407       .  A
C299        C300   1.400       .  A
C299       Br308   1.922       .  S
C300       Br304   1.932       .  S
C309        C310   1.409       .  A
C309        C314   1.409       .  A
C310        C311   1.405       .  A
C310       Br322   1.931       .  S
C311        C312   1.409       .  A
C311       Br326   1.929       .  S
C312        C313   1.409       .  A
C312        C315   1.480       .  S
C313        C314   1.405       .  A
C313       Br321   1.930       .  S
C314       Br325   1.930       .  S
C315        C316   1.408       .  A
C315        C320   1.409       .  A
C316        C317   1.404       .  A
C316       Br327   1.930       .  S
C317        C318   1.409       .  A
C317       Br323   1.928       .  S
C318        C319   1.410       .  A
C319        C320   1.407       .  A
C319       Br328   1.928       .  S
C320       Br324   1.930       .  S
C329        C330   1.410       .  A
C329        C334   1.408       .  A
C330        C331   1.402       .  A
C330       Br342   1.932       .  S
C331        C332   1.407       .  A
C331       Br346   1.930       .  S
C332        C333   1.408       .  A
C332        C335   1.472       .  S
C333        C334   1.402       .  A
C333       Br341   1.930       .  S
C334       Br345   1.931       .  S
C335        C336   1.407       .  A
C335        C340   1.408       .  A
C336        C337   1.403       .  A
C336       Br347   1.930       .  S
C337        C338   1.407       .  A
C337       Br343   1.929       .  S
C338        C339   1.407       .  A
C339        C340   1.403       .  A
C339       Br348   1.930       .  S
C340       Br344   1.931       .  S
C349        C350   1.416       .  A
C349        C354   1.415       .  A
C350        C351   1.407   1_554  A
C350       Br362   1.933       .  S
C351        C352   1.408       .  A
C351      Br1194   1.932   1_565  S
C352        C353   1.408   1_556  A
C352       C1183   1.488       .  S
C353        C354   1.412       .  A
C353       Br361   1.929       .  S
C354       Br365   1.924       .  S
C355        C356   1.405       .  A
C355        C360   1.408       .  A
C355       C1180   1.488       .  S
C356        C357   1.407   1_565  A
C356      Br1195   1.932   1_565  S
C357        C358   1.421   1_545  A
C357       Br363   1.935       .  S
C358        C359   1.416       .  A
C359        C360   1.413       .  A
C359       Br368   1.920       .  S
C360       Br364   1.930       .  S
Br366      C1179   1.932   1_545  S
Br367      C1184   1.932   1_544  S
C369        C370   1.413   1_545  A
C369        C374   1.415       .  A
C370        C371   1.407       .  A
C370       Br382   1.925       .  S
C371        C372   1.408       .  A
C371       Br386   1.931       .  S
C372        C373   1.407   1_565  A
C372        C375   1.485       .  S
C373        C374   1.409       .  A
C373       Br381   1.929       .  S
C374       Br385   1.931       .  S
C375        C376   1.409       .  A
C375        C380   1.408       .  A
C376        C377   1.409       .  A
C376       Br387   1.928   1_565  S
C377        C378   1.410       .  A
C377       Br383   1.928       .  S
C378        C379   1.411       .  A
C379        C380   1.407       .  A
C379       Br388   1.930       .  S
C380       Br384   1.931       .  S
C389        C390   1.409       .  A
C389        C394   1.410       .  A
C390        C391   1.410       .  A
C390       Br402   1.928       .  S
C391        C392   1.412       .  A
C391       Br406   1.929       .  S
C392        C393   1.410       .  A
C392        C395   1.490       .  S
C393        C394   1.408       .  A
C393       Br401   1.931       .  S
C394       Br405   1.930       .  S
C395        C396   1.411       .  A
C395        C400   1.412       .  A
C396        C397   1.409       .  A
C396       Br407   1.929       .  S
C397        C398   1.410       .  A
C397       Br403   1.929       .  S
C398        C399   1.408       .  A
C399        C400   1.408       .  A
C399       Br408   1.930       .  S
C400       Br404   1.930       .  S
C409        C410   1.407       .  A
C409        C414   1.407       .  A
C410        C411   1.405       .  A
C410       Br422   1.929       .  S
C411        C412   1.408       .  A
C411       Br426   1.929       .  S
C412        C413   1.408       .  A
C412        C415   1.475       .  S
C413        C414   1.403       .  A
C413       Br421   1.930       .  S
C414       Br425   1.928       .  S
C415        C416   1.408       .  A
C415        C420   1.407       .  A
C416        C417   1.403       .  A
C416       Br427   1.930       .  S
C417        C418   1.410       .  A
C417       Br423   1.932       .  S
C418        C419   1.412       .  A
C419        C420   1.405       .  A
C419       Br428   1.931       .  S
C420       Br424   1.930       .  S
C429        C430   1.409       .  A
C429        C434   1.413       .  A
C430        C431   1.409   1_655  A
C430       Br442   1.929   1_655  S
C431        C432   1.411   1_455  A
C431       Br446   1.929       .  S
C432        C433   1.408       .  A
C432        C435   1.483   1_655  S
C433        C434   1.404       .  A
C433       Br441   1.934       .  S
C434       Br445   1.933       .  S
C435        C440   1.406       .  A
C435       C1264   1.406   1_455  A
C436        C437   1.408   1_655  A
C436       C1263   1.406   1_655  A
C436       Br447   1.933       .  S
C437        C438   1.423       .  A
C437       Br443   1.936   1_455  S
C438        C439   1.420       .  A
C439       C1268   1.407   1_554  A
C439      Br1276   1.935       .  S
C440       C1267   1.407       .  A
C440       Br444   1.933       .  S
Br448      C1267   1.935       .  S
C449        C450   1.424       .  A
C449        C454   1.426       .  A
C450        C451   1.410       .  A
C450       Br462   1.933       .  S
C451        C452   1.404       .  A
C451       Br466   1.932       .  S
C452        C453   1.404       .  A
C452        C455   1.483       .  S
C453        C454   1.407       .  A
C453       Br461   1.936       .  S
C454       Br465   1.937       .  S
C455        C456   1.409       .  A
C455        C460   1.407   1_655  A
C456        C457   1.409       .  A
C456       Br467   1.929       .  S
C457        C458   1.414   1_655  A
C457       Br463   1.931       .  S
C458        C459   1.415       .  A
C459        C460   1.403       .  A
C459       Br468   1.934       .  S
C460       Br464   1.933       .  S
C469        C470   1.413       .  A
C469        C474   1.414       .  A
C470        C471   1.407       .  A
C470       Br482   1.931       .  S
C471        C472   1.408       .  A
C471       Br486   1.931       .  S
C472        C473   1.408       .  A
C472        C475   1.483       .  S
C473        C474   1.408       .  A
C473       Br481   1.931       .  S
C474       Br485   1.932       .  S
C475        C476   1.410       .  A
C475        C480   1.409       .  A
C476        C477   1.406       .  A
C476       Br487   1.929       .  S
C477        C478   1.408       .  A
C477       Br483   1.930       .  S
C478        C479   1.409       .  A
C479        C480   1.405       .  A
C479       Br488   1.929       .  S
C480       Br484   1.930       .  S
C489        C490   1.414       .  A
C489        C494   1.413       .  A
C490       C1319   1.401   1_554  A
C490       Br502   1.936       .  S
C491        C492   1.409       .  A
C491       C1318   1.401       .  A
C491       Br506   1.935       .  S
C492        C493   1.410       .  A
C492        C495   1.485       .  S
C493       C1322   1.410       .  A
C493       Br501   1.929       .  S
C494       C1321   1.410       .  A
C494       Br505   1.927       .  S
C495        C496   1.408       .  A
C495        C500   1.408       .  A
C496        C497   1.408       .  A
C496       Br507   1.933       .  S
C497        C498   1.417       .  A
C497       Br503   1.929       .  S
C498        C499   1.415       .  A
C499        C500   1.406       .  A
C499       Br508   1.931       .  S
C500       Br504   1.931       .  S
C509        C510   1.409       .  A
C509        C514   1.407       .  A
C510        C511   1.405       .  A
C510       Br522   1.930       .  S
C511        C512   1.409       .  A
C511       Br526   1.930       .  S
C512        C513   1.410       .  A
C512        C515   1.481       .  S
C513        C514   1.407       .  A
C513       Br521   1.929       .  S
C514       Br525   1.928       .  S
C515        C516   1.408       .  A
C515        C520   1.409       .  A
C516        C517   1.404       .  A
C516       Br527   1.932       .  S
C517        C518   1.412       .  A
C517       Br523   1.934       .  S
C518        C519   1.411       .  A
C519        C520   1.409       .  A
C519       Br528   1.927       .  S
C520       Br524   1.928       .  S
C529        C530   1.413       .  A
C529        C534   1.412       .  A
C530        C531   1.411       .  A
C530       Br542   1.929       .  S
C531        C532   1.409       .  A
C531       Br546   1.928       .  S
C532        C533   1.410       .  A
C532        C535   1.493       .  S
C533        C534   1.410       .  A
C533       Br541   1.929       .  S
C534       Br545   1.930       .  S
C535        C536   1.411       .  A
C535        C540   1.409       .  A
C536        C537   1.414       .  A
C536       Br547   1.927       .  S
C537        C538   1.413       .  A
C537       Br543   1.927       .  S
C538        C539   1.414       .  A
C539        C540   1.408       .  A
C539       Br548   1.932       .  S
C540       Br544   1.931       .  S
C549        C550   1.419       .  A
C549        C554   1.421       .  A
C550        C551   1.407       .  A
C550       Br562   1.935       .  S
C551        C552   1.408       .  A
C551       Br566   1.933       .  S
C552        C553   1.407       .  A
C552        C555   1.488       .  S
C553        C554   1.409       .  A
C553       Br561   1.935       .  S
C554       Br565   1.925       .  S
C555        C556   1.410       .  A
C555        C560   1.410       .  A
C556        C557   1.409       .  A
C556       Br567   1.932       .  S
C557        C558   1.416       .  A
C557       Br563   1.931       .  S
C558        C559   1.412       .  A
C559        C560   1.406       .  A
C559       Br568   1.931       .  S
C560       Br564   1.932       .  S
C569        C570   1.409   1_554  A
C569        C574   1.408   1_554  A
C570       C1399   1.408       .  A
C570       Br582   1.929   1_556  S
C571        C572   1.410       .  A
C571       C1398   1.408       .  A
C571       Br586   1.928       .  S
C572        C573   1.410       .  A
C572        C575   1.490       .  S
C573       C1402   1.410       .  A
C573       Br581   1.927       .  S
C574       C1401   1.410       .  A
C574       Br585   1.927   1_556  S
C575        C576   1.407       .  A
C575        C580   1.408       .  A
C576        C577   1.414       .  A
C576       Br587   1.929       .  S
C577        C578   1.421       .  A
C577       Br583   1.931       .  S
C578        C579   1.418       .  A
C579        C580   1.408       .  A
C579       Br588   1.934       .  S
C580      Br1412   1.934       .  S
Br584      C1408   1.934       .  S
C589        C590   1.411       .  A
C589        C594   1.415       .  A
C590        C591   1.412       .  A
C590       Br602   1.928       .  S
C591        C592   1.412       .  A
C591       Br606   1.929       .  S
C592        C593   1.409       .  A
C592        C595   1.493       .  S
C593        C594   1.409       .  A
C593       Br601   1.930       .  S
C594       Br605   1.932       .  S
C595        C596   1.410       .  A
C595        C600   1.411       .  A
C596        C597   1.411       .  A
C596       Br607   1.929       .  S
C597        C598   1.412       .  A
C597       Br603   1.930       .  S
C598        C599   1.413       .  A
C599        C600   1.410       .  A
C599       Br608   1.931       .  S
C600       Br604   1.930       .  S
C609        C610   1.414       .  A
C609        C614   1.413       .  A
C610        C611   1.408       .  A
C610       Br622   1.933       .  S
C611        C612   1.410       .  A
C611       Br626   1.931       .  S
C612        C613   1.410       .  A
C612        C615   1.493       .  S
C613        C614   1.412       .  A
C613       Br621   1.929       .  S
C614       Br625   1.929       .  S
C615        C616   1.409       .  A
C615        C620   1.409       .  A
C616        C617   1.408       .  A
C616       Br627   1.934       .  S
C617       C1446   1.419       .  A
C617      Br1451   1.935       .  S
C618       C1445   1.419       .  A
C618       C1447   1.419       .  A
C619        C620   1.413       .  A
C619       C1446   1.419       .  A
C619      Br1456   1.929       .  S
C620       Br624   1.930       .  S
Br623      C1445   1.935       .  S
Br628      C1447   1.929       .  S
C629        C630   1.410       .  A
C629        C634   1.410       .  A
C630        C631   1.408       .  A
C630       Br642   1.930       .  S
C631        C632   1.411       .  A
C631       Br646   1.929       .  S
C632        C633   1.409       .  A
C632        C635   1.488       .  S
C633        C634   1.408       .  A
C633       Br641   1.928       .  S
C634       Br645   1.929       .  S
C635        C636   1.404       .  A
C635        C640   1.405       .  A
C636        C637   1.412       .  A
C636       Br647   1.932       .  S
C637        C638   1.427       .  A
C637       Br643   1.932       .  S
C638        C639   1.424       .  A
C639        C640   1.409       .  A
C639       Br648   1.936       .  S
C640       Br644   1.933       .  S
C649        C650   1.408       .  A
C649        C654   1.409       .  A
C650        C651   1.408       .  A
C650       Br662   1.929   1_545  S
C651        C652   1.412       .  A
C651       Br666   1.931       .  S
C652        C653   1.412       .  A
C652        C655   1.492       .  S
C653        C654   1.410       .  A
C653       Br661   1.930       .  S
C654       Br665   1.926       .  S
C655        C656   1.410       .  A
C655        C660   1.409       .  A
C656        C657   1.410       .  A
C656       Br667   1.930       .  S
C657        C658   1.416       .  A
C657       Br663   1.932       .  S
C658        C659   1.417       .  A
C659        C660   1.408       .  A
C659       Br668   1.933       .  S
C660       Br664   1.931       .  S
C669        C670   1.414       .  A
C669        C674   1.415       .  A
C670        C671   1.409       .  A
C670       Br682   1.930       .  S
C671        C672   1.409       .  A
C671       Br686   1.930       .  S
C672        C673   1.408       .  A
C672        C675   1.484       .  S
C673        C674   1.404       .  A
C673       Br681   1.933       .  S
C674       Br685   1.933       .  S
C675        C676   1.407       .  A
C675        C680   1.407       .  A
C676        C677   1.407       .  A
C676       Br687   1.933       .  S
C677        C678   1.418       .  A
C677       Br683   1.930       .  S
C678        C679   1.420       .  A
C679        C680   1.407       .  A
C679       Br688   1.936       .  S
C680       Br684   1.933       .  S
C689        C690   1.420       .  A
C689        C694   1.417       .  A
C690        C691   1.409       .  A
C690       Br702   1.928       .  S
C691        C692   1.405       .  A
C691       Br706   1.931       .  S
C692        C693   1.407       .  A
C692        C695   1.484       .  S
C693        C694   1.407       .  A
C693      Br1529   1.931       .  S
C694       Br705   1.932       .  S
C695        C696   1.411       .  A
C695        C700   1.409       .  A
C696       C1525   1.406       .  A
C696       Br707   1.930       .  S
C697        C698   1.408       .  A
C697       C1524   1.406       .  A
C697       Br703   1.930       .  S
C698        C699   1.410       .  A
C699       C1528   1.407       .  A
C699       Br708   1.929       .  S
C700       C1527   1.407       .  A
C700       Br704   1.928       .  S
Br701      C1521   1.931   1_554  S
C709        C710   1.417       .  A
C709        C714   1.420       .  A
C710        C711   1.410       .  A
C710       Br722   1.933       .  S
C711        C712   1.409       .  A
C711       Br726   1.931       .  S
C712        C713   1.408       .  A
C712        C715   1.489       .  S
C713        C714   1.409       .  A
C713       Br721   1.934       .  S
C714       Br725   1.932       .  S
C715        C716   1.410       .  A
C715        C720   1.411       .  A
C716        C717   1.408       .  A
C716       Br727   1.930       .  S
C717        C718   1.411       .  A
C717       Br723   1.930       .  S
C718        C719   1.410       .  A
C719        C720   1.409       .  A
C719       Br728   1.929       .  S
C720       Br724   1.930       .  S
C729        C734   1.420       .  A
C729       C1558   1.421       .  A
C730        C731   1.407       .  A
C730       C1557   1.421       .  A
C730       Br742   1.936       .  S
C731        C732   1.406       .  A
C731       Br746   1.933       .  S
C732        C733   1.406       .  A
C732        C735   1.484       .  S
C733       C1562   1.409       .  A
C733       Br741   1.932       .  S
C734       C1561   1.409       .  A
C734       Br745   1.932       .  S
C735        C736   1.408       .  A
C735        C740   1.410       .  A
C736        C737   1.404       .  A
C736       Br747   1.932       .  S
C737        C738   1.413       .  A
C737       Br743   1.932       .  S
C738        C739   1.411       .  A
C739        C740   1.408       .  A
C739       Br748   1.930       .  S
C740       Br744   1.928       .  S
C749        C750   1.409       .  A
C749        C754   1.410       .  A
C750        C751   1.406       .  A
C750       Br762   1.931       .  S
C751        C752   1.409       .  A
C751       Br766   1.931       .  S
C752        C753   1.409       .  A
C752        C755   1.485       .  S
C753        C754   1.408       .  A
C753       Br761   1.928       .  S
C754       Br765   1.929       .  S
C755        C756   1.405       .  A
C755        C760   1.406       .  A
C756        C757   1.410       .  A
C756       Br767   1.931       .  S
C757        C758   1.421       .  A
C757       Br763   1.929       .  S
C758        C759   1.419       .  A
C759        C760   1.407       .  A
C759       Br768   1.934       .  S
C760       Br764   1.932       .  S
C769        C770   1.414       .  A
C769        C774   1.413       .  A
C770        C771   1.406       .  A
C770       Br782   1.931       .  S
C771        C772   1.408       .  A
C771       Br786   1.931       .  S
C772        C773   1.408       .  A
C772        C775   1.482       .  S
C773        C774   1.406       .  A
C773       Br781   1.931       .  S
C774       Br785   1.932       .  S
C775        C776   1.404       .  A
C775        C780   1.407       .  A
C776        C777   1.405       .  A
C776       Br787   1.933       .  S
C777        C778   1.421       .  A
C777       Br783   1.936       .  S
C778        C779   1.420       .  A
C779        C780   1.409       .  A
C779       Br788   1.932       .  S
C780       Br784   1.931       .  S
C789        C790   1.418       .  A
C789        C794   1.419       .  A
C790        C791   1.407       .  A
C790       Br802   1.932       .  S
C791        C792   1.407       .  A
C791       Br806   1.933       .  S
C792        C793   1.406       .  A
C792        C795   1.486       .  S
C793        C794   1.411       .  A
C793       Br801   1.930       .  S
C794       Br805   1.927       .  S
C795        C796   1.410       .  A
C795        C800   1.409       .  A
C796        C797   1.409       .  A
C796       Br807   1.928       .  S
C797        C798   1.409       .  A
C797       Br803   1.928       .  S
C798        C799   1.408       .  A
C799        C800   1.406       .  A
C799       Br808   1.928       .  S
C800       Br804   1.929       .  S
C809        C810   1.416       .  A
C809        C814   1.422       .  A
C810        C811   1.413       .  A
C810       Br822   1.927       .  S
C811        C812   1.409       .  A
C811       Br826   1.929       .  S
C812        C813   1.406       .  A
C812       C1643   1.488       .  S
C813        C814   1.405       .  A
C813      Br1649   1.936       .  S
C814       Br825   1.936       .  S
C815        C816   1.411       .  A
C815        C820   1.408   1_556  A
C815       C1640   1.488       .  S
C816        C817   1.409   1_556  A
C816      Br1655   1.930       .  S
C817        C818   1.413       .  A
C817       Br823   1.931       .  S
C818        C819   1.414       .  A
C819        C820   1.407       .  A
C819       Br828   1.930       .  S
C820       Br824   1.931       .  S
Br821      C1641   1.936   1_554  S
Br827      C1644   1.930       .  S
C829        C830   1.405       .  A
C829        C834   1.406       .  A
C829       C1597   1.483       .  S
C830        C831   1.399       .  A
C830        H835   1.084       .  S
C831        C832   1.402       .  A
C831       C1626   1.479       .  S
C832        C833   1.405       .  A
C832        H836   1.084       .  S
C833        C834   1.404       .  A
C833       C1646   1.488       .  S
C834        H837   1.084       .  S
C838        C839   1.407       .  A
C838        C843   1.407       .  A
C838       C1546   1.483       .  S
C839        C840   1.403       .  A
C839        H844   1.084       .  S
C840        C841   1.396       .  A
C840       C1577   1.477       .  S
C841        C842   1.398       .  A
C841        H845   1.085       .  S
C842        C843   1.405       .  A
C842       C1566   1.481       .  S
C843        H846   1.084       .  S
C847        C848   1.410       .  A
C847        C852   1.411       .  A
C847       C1486   1.494       .  S
C848        C849   1.402       .  A
C848        H853   1.083       .  S
C849        C850   1.395       .  A
C849       C1526   1.476       .  S
C850        C851   1.399       .  A
C850        H854   1.085       .  S
C851        C852   1.406       .  A
C851       C1497   1.486       .  S
C852        H855   1.083       .  S
C856        C857   1.406       .  A
C856        C861   1.411       .  A
C856       C1426   1.489       .  S
C857        C858   1.402       .  A
C857        H862   1.084       .  S
C858        C859   1.400       .  A
C858       C1457   1.481       .  S
C859        C860   1.403       .  A
C859        H863   1.084       .  S
C860        C861   1.408       .  A
C860       C1437   1.491       .  S
C861        H864   1.084       .  S
C865        C866   1.410       .  A
C865        C870   1.407       .  A
C865       C1357   1.490       .  S
C866        C867   1.405       .  A
C866        H871   1.083       .  S
C867        C868   1.400       .  A
C867       C1397   1.481       .  S
C868        C869   1.400       .  A
C868        H872   1.085       .  S
C869        C870   1.406       .  A
C869       C1386   1.488       .  S
C870        H873   1.084       .  S
C874        C875   1.406       .  A
C874        C879   1.399       .  A
C874       C1306   1.474       .  S
C875        C876   1.407       .  A
C875        H880   1.083       .  S
C876        C877   1.407       .  A
C876       C1326   1.492       .  S
C877        C878   1.400       .  A
C877        H881   1.084       .  S
C878        C879   1.396       .  A
C878       C1337   1.474       .  S
C879        H882   1.084       .  S
O883       Ni889   1.933       .  S
O883        C904   1.271       .  A
O884       Ni907   1.917       .  S
O884        C893   1.269       .  A
O885       Ni889   1.900       .  S
O885       Ni907   1.910       .  S
O885       Ni901   1.905       .  S
O885        H908   0.966       .  S
C886       C1237   1.464       .  S
C886        O903   1.277       .  A
C886        O895   1.274       .  A
O887       Ni906   1.914       .  S
O887        C893   1.268       .  A
O888       Ni906   1.913       .  S
O888        C890   1.269       .  A
Ni889       O892   1.934       .  S
Ni889       O894   1.902       .  S
C890       C1517   1.492       .  S
C890        O900   1.271       .  A
O891       Ni907   1.910       .  S
O891        C897   1.276       .  A
O892        C897   1.279       .  A
C893       C1257   1.475       .  S
O894        C896   1.264       .  A
O895       Ni906   1.912       .  S
C896       C1277   1.499       .  S
C896        O902   1.271       .  A
C897       C1297   1.481   1_655  S
H898        O899   0.965       .  S
O899       Ni907   1.916       .  S
O899       Ni901   1.894       .  S
O899       Ni906   1.902       .  S
O900       Ni901   1.928       .  S
Ni901       O905   1.907       .  S
Ni901       O903   1.923       .  S
O902       Ni907   1.938       .  S
C904       C1506   1.489       .  S
C904        O905   1.267       .  A
O909       Ni915   1.935       .  S
O909        C930   1.272       .  A
O910       Ni933   1.910       .  S
O910        C919   1.269       .  A
O911       Ni915   1.901       .  S
O911       Ni933   1.899       .  S
O911       Ni927   1.916       .  S
O911        H934   0.966       .  S
C912       C1217   1.477       .  S
C912        O929   1.282       .  A
C912        O921   1.277       .  A
O913       Ni932   1.921       .  S
O913        C919   1.270       .  A
O914       Ni932   1.910       .  S
O914        C916   1.269       .  A
Ni915       O918   1.926   1_455  S
Ni915       O920   1.907       .  S
C916       C1586   1.495       .  S
C916        O926   1.272       .  A
O917       Ni933   1.936   1_655  S
O917        C923   1.282       .  A
O918        C923   1.279       .  A
C919       C1286   1.479       .  S
O920        C922   1.267       .  A
O921       Ni932   1.919       .  S
C922       C1266   1.492       .  S
C922        O928   1.268       .  A
C923       C1366   1.489       .  S
H924        O925   0.966       .  S
O925       Ni933   1.919       .  S
O925       Ni927   1.889       .  S
O925       Ni932   1.892       .  S
O926       Ni927   1.931       .  S
Ni927       O931   1.909       .  S
Ni927       O929   1.938       .  S
O928       Ni933   1.920       .  S
C930       C1557   1.492       .  S
C930        O931   1.268       .  A
O935       Ni941   1.936       .  S
O935        C956   1.272       .  A
O936       Ni959   1.933       .  S
O936        C945   1.275       .  A
O937       Ni941   1.924       .  S
O937       Ni959   1.925       .  S
O937       Ni953   1.909       .  S
O937        H960   0.966       .  S
C938       C1166   1.461       .  S
C938        O955   1.261       .  A
C938        O947   1.269       .  A
O939       Ni958   1.908       .  S
O939        C945   1.268       .  A
O940       Ni958   1.901       .  S
O940        C942   1.267       .  A
Ni941       O944   1.929   1_545  S
Ni941       O946   1.911       .  S
C942       C1637   1.494       .  S
C942        O952   1.281       .  A
O943       Ni959   1.913   1_565  S
O943        C949   1.273       .  A
O944        C949   1.272       .  A
C945       C1186   1.497   1_545  S
O946        C948   1.272       .  A
O947       Ni958   1.936       .  S
C948       C1197   1.486       .  S
C948        O954   1.276       .  A
C949       C1537   1.492       .  S
H950        O951   0.966       .  S
O951       Ni959   1.927       .  S
O951       Ni953   1.910       .  S
O951       Ni958   1.912       .  S
O952       Ni953   1.964       .  S
Ni953       O957   1.904       .  S
Ni953       O955   1.892       .  S
O954       Ni959   1.941       .  S
C956       C1617   1.494       .  S
C956        O957   1.264       .  A
O961       Ni967   1.936       .  S
O961        C982   1.273       .  A
O962       Ni985   1.910       .  S
O962        C971   1.268       .  A
O963       Ni967   1.905       .  S
O963       Ni985   1.909       .  S
O963       Ni979   1.914       .  S
O963        H986   0.966       .  S
C964       C1146   1.472       .  S
C964        O981   1.280       .  A
C964        O973   1.276       .  A
O965       Ni984   1.927       .  S
O965        C971   1.272       .  A
O966       Ni984   1.913       .  S
O966        C968   1.270       .  A
Ni967       O970   1.937       .  S
Ni967       O972   1.906       .  S
C968       C1466   1.507       .  S
C968        O978   1.272       .  A
O969       Ni985   1.919       .  S
O969        C975   1.276       .  A
O970        C975   1.279       .  A
C971       C1206   1.478       .  S
O972        C974   1.267       .  A
O973       Ni984   1.915       .  S
C974       C1177   1.488       .  S
C974        O980   1.274       .  A
C975       C1477   1.479   1_565  S
H976        O977   0.977       .  S
O977       Ni985   1.911       .  S
O977       Ni979   1.895       .  S
O977       Ni984   1.898       .  S
O978       Ni979   1.935       .  S
Ni979       O983   1.917       .  S
Ni979       O981   1.930       .  S
O980       Ni985   1.939       .  S
C982       C1446   1.495       .  S
C982        O983   1.270       .  A
C987        C988   1.400       .  A
C987        C992   1.402       .  A
C987       C1117   1.474       .  S
C988        C989   1.399       .  A
C988        H993   1.084       .  S
C989        C990   1.396       .  A
C989       C1157   1.468       .  S
C990        C991   1.397       .  A
C990        H994   1.085       .  S
C991        C992   1.402       .  A
C991       C1246   1.473       .  S
C992        H995   1.084       .  S
C996        C997   1.406       .  A
C996       C1001   1.399       .  A
C996       C1106   1.477       .  S
C997        C998   1.407       .  A
C997       H1002   1.084       .  S
C998        C999   1.401       .  A
C998       C1226   1.480       .  S
C999       C1000   1.400       .  A
C999       H1003   1.084       .  S
C1000      C1001   1.399       .  A
C1000      C1137   1.474       .  S
C1001      H1004   1.084       .  S
O1005     Ni1011   1.924       .  S
O1005      C1026   1.268       .  A
O1006     Ni1029   1.906       .  S
O1006      C1015   1.266       .  A
O1007     Ni1011   1.912       .  S
O1007     Ni1029   1.910       .  S
O1007     Ni1023   1.907       .  S
O1007      H1030   0.965       .  S
C1008      C1606   1.491       .  S
C1008      O1025   1.267       .  A
C1008      O1017   1.269       .  A
O1009     Ni1028   1.917       .  S
O1009      C1015   1.269       .  A
O1010     Ni1028   1.898       .  S
O1010      C1012   1.268       .  A
Ni1011     O1014   1.930       .  S
Ni1011     O1016   1.895       .  S
C1012      C1057   1.467       .  S
C1012      O1022   1.278       .  A
O1013     Ni1029   1.905       .  S
O1013      C1019   1.269       .  A
O1014      C1019   1.273       .  A
C1015      C1346   1.475       .  S
O1016      C1018   1.267       .  A
O1017     Ni1028   1.931       .  S
C1018      C1317   1.480       .  S
C1018      O1024   1.274       .  A
C1019      C1097   1.472       .  S
H1020      O1021   0.964       .  S
O1021     Ni1029   1.926       .  S
O1021     Ni1023   1.913       .  S
O1021     Ni1028   1.921       .  S
O1022     Ni1023   1.949       .  S
Ni1023     O1027   1.912       .  S
Ni1023     O1025   1.913       .  S
O1024     Ni1029   1.938       .  S
C1026      C1077   1.478       .  S
C1026      O1027   1.268       .  A
O1031     Ni1037   1.941       .  S
O1031      C1052   1.273       .  A
O1032     Ni1055   1.928       .  S
O1032      C1041   1.274       .  A
O1033     Ni1037   1.902       .  S
O1033     Ni1055   1.910       .  S
O1033     Ni1049   1.911       .  S
O1033      H1056   0.966       .  S
C1034      C1126   1.466       .  S
C1034      O1051   1.275       .  A
C1034      O1043   1.276       .  A
O1035     Ni1054   1.912       .  S
O1035      C1041   1.268       .  A
O1036     Ni1054   1.906       .  S
O1036      C1038   1.269       .  A
Ni1037     O1040   1.924       .  S
Ni1037     O1042   1.904       .  S
C1038      C1406   1.498       .  S
C1038      O1048   1.275       .  A
O1039     Ni1055   1.936       .  S
O1039      C1045   1.283       .  A
O1040      C1045   1.279       .  A
C1041      C1086   1.489       .  S
O1042      C1044   1.267       .  A
O1043     Ni1054   1.918       .  S
C1044      C1066   1.486       .  S
C1044      O1050   1.271       .  A
C1045      C1417   1.486       .  S
H1046      O1047   0.966       .  S
O1047     Ni1055   1.920       .  S
O1047     Ni1049   1.886       .  S
O1047     Ni1054   1.890       .  S
O1048     Ni1049   1.941       .  S
Ni1049     O1053   1.909       .  S
Ni1049     O1051   1.917       .  S
O1050     Ni1055   1.927       .  S
C1052      C1377   1.495       .  S
C1052      O1053   1.268       .  A
C1057      C1058   1.407       .  A
C1057      C1062   1.407       .  A
C1058      C1059   1.405       .  A
C1058     Br1070   1.928       .  S
C1059      C1060   1.412       .  A
C1059     Br1074   1.931       .  S
C1060      C1061   1.412       .  A
C1060      C1063   1.486       .  S
C1061      C1062   1.406       .  A
C1061     Br1069   1.931       .  S
C1062     Br1073   1.931       .  S
C1063      C1064   1.409       .  A
C1063      C1068   1.410       .  A
C1064      C1065   1.407       .  A
C1064     Br1075   1.934       .  S
C1065      C1066   1.417       .  A
C1065     Br1071   1.933       .  S
C1066      C1067   1.416       .  A
C1067      C1068   1.407       .  A
C1067     Br1076   1.933       .  S
C1068     Br1072   1.933       .  S
C1077      C1078   1.412       .  A
C1077      C1082   1.411       .  A
C1078     Br1090   1.930       .  S
C1079      C1080   1.408       .  A
C1079     Br1094   1.929       .  S
C1080      C1083   1.486       .  S
C1081      C1082   1.408       .  A
C1081     Br1089   1.929       .  S
C1082     Br1093   1.930       .  S
C1083      C1084   1.404       .  A
C1083      C1088   1.410       .  A
C1084      C1085   1.406       .  A
C1085      C1086   1.421       .  A
C1085     Br1091   1.932       .  S
C1086      C1087   1.413       .  A
C1087      C1088   1.411       .  A
C1087     Br1096   1.931       .  S
C1088     Br1092   1.929       .  S
C1097      C1098   1.409       .  A
C1097      C1102   1.410       .  A
C1098      C1099   1.409       .  A
C1098     Br1110   1.929       .  S
C1099      C1100   1.410       .  A
C1099     Br1114   1.928       .  S
C1100      C1101   1.408       .  A
C1100      C1103   1.482       .  S
C1101      C1102   1.405       .  A
C1101     Br1109   1.930       .  S
C1102     Br1113   1.930       .  S
C1103      C1104   1.409       .  A
C1103      C1108   1.409       .  A
C1104      C1105   1.407       .  A
C1104     Br1115   1.929       .  S
C1105      C1106   1.409       .  A
C1105     Br1111   1.928       .  S
C1106      C1107   1.409       .  A
C1107      C1108   1.407       .  A
C1107     Br1116   1.929       .  S
C1108     Br1112   1.929       .  S
C1117      C1118   1.410       .  A
C1117      C1122   1.410       .  A
C1118      C1119   1.402       .  A
C1118     Br1130   1.932       .  S
C1119      C1120   1.409       .  A
C1119     Br1134   1.934       .  S
C1120      C1121   1.407       .  A
C1120      C1123   1.475       .  S
C1121      C1122   1.406       .  A
C1121     Br1129   1.928       .  S
C1122     Br1133   1.929       .  S
C1123      C1124   1.409       .  A
C1123      C1128   1.407       .  A
C1124      C1125   1.407       .  A
C1124     Br1135   1.927       .  S
C1125      C1126   1.408       .  A
C1125     Br1131   1.928       .  S
C1126      C1127   1.407       .  A
C1127      C1128   1.400       .  A
C1127     Br1136   1.922       .  S
C1128     Br1132   1.932       .  S
C1137      C1138   1.409       .  A
C1137      C1142   1.409       .  A
C1138      C1139   1.406       .  A
C1138     Br1150   1.931       .  S
C1139      C1140   1.409       .  A
C1139     Br1154   1.929       .  S
C1140      C1141   1.409       .  A
C1140      C1143   1.480       .  S
C1141      C1142   1.405       .  A
C1141     Br1149   1.930       .  S
C1142     Br1153   1.930       .  S
C1143      C1144   1.408       .  A
C1143      C1148   1.409       .  A
C1144      C1145   1.404       .  A
C1144     Br1155   1.930       .  S
C1145      C1146   1.409       .  A
C1145     Br1151   1.928       .  S
C1146      C1147   1.410       .  A
C1147      C1148   1.407       .  A
C1147     Br1156   1.928       .  S
C1148     Br1152   1.930       .  S
C1157      C1158   1.410       .  A
C1157      C1162   1.408       .  A
C1158      C1159   1.402       .  A
C1158     Br1170   1.932       .  S
C1159      C1160   1.407       .  A
C1159     Br1174   1.930       .  S
C1160      C1161   1.408       .  A
C1160      C1163   1.472       .  S
C1161      C1162   1.402       .  A
C1161     Br1169   1.930       .  S
C1162     Br1173   1.931       .  S
C1163      C1164   1.407       .  A
C1163      C1168   1.408       .  A
C1164      C1165   1.403       .  A
C1164     Br1175   1.930       .  S
C1165      C1166   1.407       .  A
C1165     Br1171   1.929       .  S
C1166      C1167   1.407       .  A
C1167      C1168   1.403       .  A
C1167     Br1176   1.930       .  S
C1168     Br1172   1.931       .  S
C1177      C1178   1.416       .  A
C1177      C1182   1.415       .  A
C1178      C1179   1.407       .  A
C1178     Br1190   1.933       .  S
C1179      C1180   1.408       .  A
C1180      C1181   1.408       .  A
C1181      C1182   1.412       .  A
C1181     Br1189   1.929       .  S
C1182     Br1193   1.924       .  S
C1183      C1184   1.405       .  A
C1183      C1188   1.408       .  A
C1184      C1185   1.407   1_565  A
C1185      C1186   1.421   1_545  A
C1185     Br1191   1.935       .  S
C1186      C1187   1.416       .  A
C1187      C1188   1.413       .  A
C1187     Br1196   1.920       .  S
C1188     Br1192   1.930       .  S
C1197      C1198   1.413   1_545  A
C1197      C1202   1.415       .  A
C1198      C1199   1.408       .  A
C1198     Br1210   1.925       .  S
C1199      C1200   1.408       .  A
C1199     Br1214   1.931       .  S
C1200      C1201   1.407   1_565  A
C1200      C1203   1.486       .  S
C1201      C1202   1.409       .  A
C1201     Br1209   1.929       .  S
C1202     Br1213   1.931       .  S
C1203      C1204   1.410       .  A
C1203      C1208   1.408       .  A
C1204      C1205   1.409       .  A
C1204     Br1215   1.928   1_565  S
C1205      C1206   1.410       .  A
C1205     Br1211   1.928       .  S
C1206      C1207   1.411       .  A
C1207      C1208   1.407       .  A
C1207     Br1216   1.930       .  S
C1208     Br1212   1.931       .  S
C1217      C1218   1.409       .  A
C1217      C1222   1.410       .  A
C1218      C1219   1.410       .  A
C1218     Br1230   1.928       .  S
C1219      C1220   1.412       .  A
C1219     Br1234   1.929       .  S
C1220      C1221   1.411       .  A
C1220      C1223   1.490       .  S
C1221      C1222   1.408       .  A
C1221     Br1229   1.931       .  S
C1222     Br1233   1.930       .  S
C1223      C1224   1.411       .  A
C1223      C1228   1.412       .  A
C1224      C1225   1.409       .  A
C1224     Br1235   1.929       .  S
C1225      C1226   1.410       .  A
C1225     Br1231   1.929       .  S
C1226      C1227   1.408       .  A
C1227      C1228   1.408       .  A
C1227     Br1236   1.930       .  S
C1228     Br1232   1.930       .  S
C1237      C1238   1.407       .  A
C1237      C1242   1.407       .  A
C1238      C1239   1.405       .  A
C1238     Br1250   1.929       .  S
C1239      C1240   1.408       .  A
C1239     Br1254   1.929       .  S
C1240      C1241   1.408       .  A
C1240      C1243   1.475       .  S
C1241      C1242   1.403       .  A
C1241     Br1249   1.930       .  S
C1242     Br1253   1.928       .  S
C1243      C1244   1.408       .  A
C1243      C1248   1.407       .  A
C1244      C1245   1.403       .  A
C1244     Br1255   1.930       .  S
C1245      C1246   1.410       .  A
C1245     Br1251   1.932       .  S
C1246      C1247   1.412       .  A
C1247      C1248   1.405       .  A
C1247     Br1256   1.931       .  S
C1248     Br1252   1.930       .  S
C1257      C1258   1.409       .  A
C1257      C1262   1.413       .  A
C1258      C1259   1.409   1_655  A
C1258     Br1270   1.929   1_655  S
C1259      C1260   1.411   1_455  A
C1259     Br1274   1.929       .  S
C1260      C1261   1.408       .  A
C1260      C1263   1.483   1_656  S
C1261      C1262   1.404       .  A
C1261     Br1269   1.934       .  S
C1262     Br1273   1.933       .  S
C1263      C1268   1.406   1_554  A
C1264      C1265   1.408   1_655  A
C1264     Br1275   1.933       .  S
C1265      C1266   1.423       .  A
C1265     Br1271   1.936   1_455  S
C1266      C1267   1.420       .  A
C1268     Br1272   1.933       .  S
C1277      C1278   1.424       .  A
C1277      C1282   1.426       .  A
C1278      C1279   1.410       .  A
C1278     Br1290   1.933       .  S
C1279      C1280   1.405       .  A
C1279     Br1294   1.932       .  S
C1280      C1281   1.404       .  A
C1280      C1283   1.483       .  S
C1281      C1282   1.407       .  A
C1281     Br1289   1.936       .  S
C1282     Br1293   1.937       .  S
C1283      C1284   1.409       .  A
C1283      C1288   1.407   1_655  A
C1284      C1285   1.409       .  A
C1284     Br1295   1.929       .  S
C1285      C1286   1.414   1_655  A
C1285     Br1291   1.931       .  S
C1286      C1287   1.415       .  A
C1287      C1288   1.403       .  A
C1287     Br1296   1.934       .  S
C1288     Br1292   1.933       .  S
C1297      C1298   1.413       .  A
C1297      C1302   1.414       .  A
C1298      C1299   1.406       .  A
C1298     Br1310   1.931       .  S
C1299      C1300   1.407       .  A
C1299     Br1314   1.931       .  S
C1300      C1301   1.408       .  A
C1300      C1303   1.483       .  S
C1301      C1302   1.408       .  A
C1301     Br1309   1.931       .  S
C1302     Br1313   1.932       .  S
C1303      C1304   1.410       .  A
C1303      C1308   1.409       .  A
C1304      C1305   1.406       .  A
C1304     Br1315   1.929       .  S
C1305      C1306   1.408       .  A
C1305     Br1311   1.930       .  S
C1306      C1307   1.409       .  A
C1307      C1308   1.405       .  A
C1307     Br1316   1.929       .  S
C1308     Br1312   1.930       .  S
C1317      C1318   1.414       .  A
C1317      C1322   1.413       .  A
C1318     Br1330   1.936       .  S
C1319      C1320   1.409       .  A
C1319     Br1334   1.935       .  S
C1320      C1321   1.410   1_556  A
C1320      C1323   1.485       .  S
C1321     Br1329   1.929       .  S
C1322     Br1333   1.927       .  S
C1323      C1324   1.408       .  A
C1323      C1328   1.408       .  A
C1324      C1325   1.408       .  A
C1324     Br1335   1.933   1_556  S
C1325      C1326   1.417       .  A
C1325     Br1331   1.929       .  S
C1326      C1327   1.415       .  A
C1327      C1328   1.406       .  A
C1327     Br1336   1.931       .  S
C1328     Br1332   1.931       .  S
C1337      C1338   1.409       .  A
C1337      C1342   1.407       .  A
C1338      C1339   1.405       .  A
C1338     Br1350   1.930       .  S
C1339      C1340   1.409       .  A
C1339     Br1354   1.930       .  S
C1340      C1341   1.410       .  A
C1340      C1343   1.481       .  S
C1341      C1342   1.407       .  A
C1341     Br1349   1.929       .  S
C1342     Br1353   1.928       .  S
C1343      C1344   1.408       .  A
C1343      C1348   1.409       .  A
C1344      C1345   1.403       .  A
C1344     Br1355   1.932       .  S
C1345      C1346   1.412       .  A
C1345     Br1351   1.934       .  S
C1346      C1347   1.411       .  A
C1347      C1348   1.409       .  A
C1347     Br1356   1.927       .  S
C1348     Br1352   1.928       .  S
C1357      C1358   1.413       .  A
C1357      C1362   1.412       .  A
C1358      C1359   1.411       .  A
C1358     Br1370   1.929       .  S
C1359      C1360   1.409       .  A
C1359     Br1374   1.928       .  S
C1360      C1361   1.410       .  A
C1360      C1363   1.493       .  S
C1361      C1362   1.410       .  A
C1361     Br1369   1.929       .  S
C1362     Br1373   1.930       .  S
C1363      C1364   1.411       .  A
C1363      C1368   1.409       .  A
C1364      C1365   1.414       .  A
C1364     Br1375   1.927       .  S
C1365      C1366   1.413       .  A
C1365     Br1371   1.927       .  S
C1366      C1367   1.414       .  A
C1367      C1368   1.408       .  A
C1367     Br1376   1.932       .  S
C1368     Br1372   1.931       .  S
C1377      C1378   1.419       .  A
C1377      C1382   1.421       .  A
C1378      C1379   1.407       .  A
C1378     Br1390   1.935       .  S
C1379      C1380   1.408       .  A
C1379     Br1394   1.933       .  S
C1380      C1381   1.407       .  A
C1380      C1383   1.488       .  S
C1381      C1382   1.409       .  A
C1381     Br1389   1.935       .  S
C1382     Br1393   1.925       .  S
C1383      C1384   1.410       .  A
C1383      C1388   1.410       .  A
C1384      C1385   1.409       .  A
C1384     Br1395   1.932       .  S
C1385      C1386   1.416       .  A
C1385     Br1391   1.931       .  S
C1386      C1387   1.412       .  A
C1387      C1388   1.406       .  A
C1387     Br1396   1.931       .  S
C1388     Br1392   1.932       .  S
C1397      C1398   1.409       .  A
C1397      C1402   1.408       .  A
C1398     Br1410   1.929       .  S
C1399      C1400   1.410       .  A
C1399     Br1414   1.928       .  S
C1400      C1401   1.410       .  A
C1400      C1403   1.490       .  S
C1401     Br1409   1.927       .  S
C1402     Br1413   1.927       .  S
C1403      C1404   1.407       .  A
C1403      C1408   1.408       .  A
C1404      C1405   1.414       .  A
C1404     Br1415   1.929       .  S
C1405      C1406   1.421       .  A
C1405     Br1411   1.931       .  S
C1406      C1407   1.418       .  A
C1407      C1408   1.408       .  A
C1407     Br1416   1.934       .  S
C1417      C1418   1.411       .  A
C1417      C1422   1.414       .  A
C1418      C1419   1.412       .  A
C1418     Br1430   1.928       .  S
C1419      C1420   1.412       .  A
C1419     Br1434   1.929       .  S
C1420      C1421   1.409       .  A
C1420      C1423   1.493       .  S
C1421      C1422   1.409       .  A
C1421     Br1429   1.930       .  S
C1422     Br1433   1.932       .  S
C1423      C1424   1.410       .  A
C1423      C1428   1.411       .  A
C1424      C1425   1.411       .  A
C1424     Br1435   1.929       .  S
C1425      C1426   1.412       .  A
C1425     Br1431   1.929       .  S
C1426      C1427   1.413       .  A
C1427      C1428   1.410       .  A
C1427     Br1436   1.931       .  S
C1428     Br1432   1.930       .  S
C1437      C1438   1.414       .  A
C1437      C1442   1.413       .  A
C1438      C1439   1.408       .  A
C1438     Br1450   1.932       .  S
C1439      C1440   1.410       .  A
C1439     Br1454   1.931       .  S
C1440      C1441   1.410       .  A
C1440      C1443   1.493       .  S
C1441      C1442   1.412       .  A
C1441     Br1449   1.929       .  S
C1442     Br1453   1.929       .  S
C1443      C1444   1.409       .  A
C1443      C1448   1.409   1_556  A
C1444      C1445   1.408   1_556  A
C1444     Br1455   1.934       .  S
C1447      C1448   1.413       .  A
C1448     Br1452   1.930       .  S
C1457      C1458   1.410       .  A
C1457      C1462   1.410       .  A
C1458      C1459   1.408       .  A
C1458     Br1470   1.930       .  S
C1459      C1460   1.411       .  A
C1459     Br1474   1.929       .  S
C1460      C1461   1.409       .  A
C1460      C1463   1.488       .  S
C1461      C1462   1.408       .  A
C1461     Br1469   1.928       .  S
C1462     Br1473   1.929       .  S
C1463      C1464   1.404       .  A
C1463      C1468   1.405       .  A
C1464      C1465   1.412       .  A
C1464     Br1475   1.932       .  S
C1465      C1466   1.427       .  A
C1465     Br1471   1.932       .  S
C1466      C1467   1.424       .  A
C1467      C1468   1.409       .  A
C1467     Br1476   1.936       .  S
C1468     Br1472   1.933       .  S
C1477      C1478   1.408       .  A
C1477      C1482   1.409       .  A
C1478      C1479   1.408       .  A
C1478     Br1490   1.929   1_545  S
C1479      C1480   1.412       .  A
C1479     Br1494   1.931       .  S
C1480      C1481   1.412       .  A
C1480      C1483   1.492       .  S
C1481      C1482   1.410       .  A
C1481     Br1489   1.930       .  S
C1482     Br1493   1.926       .  S
C1483      C1484   1.410       .  A
C1483      C1488   1.409       .  A
C1484      C1485   1.410       .  A
C1484     Br1495   1.930       .  S
C1485      C1486   1.416       .  A
C1485     Br1491   1.932       .  S
C1486      C1487   1.417       .  A
C1487      C1488   1.408       .  A
C1487     Br1496   1.933       .  S
C1488     Br1492   1.931       .  S
C1497      C1498   1.414       .  A
C1497      C1502   1.415       .  A
C1498      C1499   1.409       .  A
C1498     Br1510   1.930       .  S
C1499      C1500   1.409       .  A
C1499     Br1514   1.930       .  S
C1500      C1501   1.408       .  A
C1500      C1503   1.484       .  S
C1501      C1502   1.404       .  A
C1501     Br1509   1.933       .  S
C1502     Br1513   1.933       .  S
C1503      C1504   1.407       .  A
C1503      C1508   1.407       .  A
C1504      C1505   1.407       .  A
C1504     Br1515   1.933       .  S
C1505      C1506   1.418       .  A
C1505     Br1511   1.930       .  S
C1506      C1507   1.420       .  A
C1507      C1508   1.407       .  A
C1507     Br1516   1.936       .  S
C1508     Br1512   1.933       .  S
C1517      C1518   1.420       .  A
C1517      C1522   1.417       .  A
C1518      C1519   1.409       .  A
C1518     Br1530   1.928       .  S
C1519      C1520   1.405       .  A
C1519     Br1534   1.931       .  S
C1520      C1521   1.407       .  A
C1520      C1523   1.484       .  S
C1521      C1522   1.407       .  A
C1522     Br1533   1.932       .  S
C1523      C1524   1.411   1_556  A
C1523      C1528   1.409   1_556  A
C1524     Br1535   1.930   1_554  S
C1525      C1526   1.408       .  A
C1525     Br1531   1.930       .  S
C1526      C1527   1.410       .  A
C1527     Br1536   1.929       .  S
C1528     Br1532   1.928   1_554  S
C1537      C1538   1.417       .  A
C1537      C1542   1.420       .  A
C1538      C1539   1.410       .  A
C1538     Br1550   1.933       .  S
C1539      C1540   1.409       .  A
C1539     Br1554   1.931       .  S
C1540      C1541   1.407       .  A
C1540      C1543   1.489       .  S
C1541      C1542   1.409       .  A
C1541     Br1549   1.934       .  S
C1542     Br1553   1.932       .  S
C1543      C1544   1.410       .  A
C1543      C1548   1.411       .  A
C1544      C1545   1.408       .  A
C1544     Br1555   1.930       .  S
C1545      C1546   1.411       .  A
C1545     Br1551   1.930       .  S
C1546      C1547   1.410       .  A
C1547      C1548   1.409       .  A
C1547     Br1556   1.929       .  S
C1548     Br1552   1.930       .  S
C1557      C1562   1.420       .  A
C1558      C1559   1.407   1_554  A
C1558     Br1570   1.936       .  S
C1559      C1560   1.406       .  A
C1559     Br1574   1.933       .  S
C1560      C1561   1.406   1_556  A
C1560      C1563   1.484       .  S
C1561     Br1569   1.932       .  S
C1562     Br1573   1.932       .  S
C1563      C1564   1.408       .  A
C1563      C1568   1.410       .  A
C1564      C1565   1.404       .  A
C1564     Br1575   1.932       .  S
C1565      C1566   1.413       .  A
C1565     Br1571   1.932       .  S
C1566      C1567   1.411       .  A
C1567      C1568   1.408       .  A
C1567     Br1576   1.929       .  S
C1568     Br1572   1.928   1_556  S
C1577      C1578   1.409       .  A
C1577      C1582   1.410       .  A
C1578      C1579   1.406       .  A
C1578     Br1590   1.931       .  S
C1579      C1580   1.409       .  A
C1579     Br1594   1.931       .  S
C1580      C1581   1.409       .  A
C1580      C1583   1.485       .  S
C1581      C1582   1.408       .  A
C1581     Br1589   1.928       .  S
C1582     Br1593   1.929       .  S
C1583      C1584   1.405       .  A
C1583      C1588   1.406       .  A
C1584      C1585   1.410       .  A
C1584     Br1595   1.931       .  S
C1585      C1586   1.421       .  A
C1585     Br1591   1.929       .  S
C1586      C1587   1.419       .  A
C1587      C1588   1.407       .  A
C1587     Br1596   1.934       .  S
C1588     Br1592   1.932       .  S
C1597      C1598   1.414       .  A
C1597      C1602   1.413       .  A
C1598      C1599   1.406       .  A
C1598     Br1610   1.931       .  S
C1599      C1600   1.408       .  A
C1599     Br1614   1.931       .  S
C1600      C1601   1.408       .  A
C1600      C1603   1.482       .  S
C1601      C1602   1.406       .  A
C1601     Br1609   1.931       .  S
C1602     Br1613   1.932       .  S
C1603      C1604   1.404       .  A
C1603      C1608   1.407       .  A
C1604      C1605   1.405       .  A
C1604     Br1615   1.933       .  S
C1605      C1606   1.421       .  A
C1605     Br1611   1.936       .  S
C1606      C1607   1.420       .  A
C1607      C1608   1.409       .  A
C1607     Br1616   1.932       .  S
C1608     Br1612   1.931       .  S
C1617      C1618   1.418       .  A
C1617      C1622   1.419       .  A
C1618      C1619   1.407       .  A
C1618     Br1630   1.932       .  S
C1619      C1620   1.407       .  A
C1619     Br1634   1.933       .  S
C1620      C1621   1.406       .  A
C1620      C1623   1.486       .  S
C1621      C1622   1.411       .  A
C1621     Br1629   1.930       .  S
C1622     Br1633   1.927       .  S
C1623      C1624   1.410       .  A
C1623      C1628   1.409       .  A
C1624      C1625   1.409       .  A
C1624     Br1635   1.928       .  S
C1625      C1626   1.409       .  A
C1625     Br1631   1.928       .  S
C1626      C1627   1.408       .  A
C1627      C1628   1.406       .  A
C1627     Br1636   1.928       .  S
C1628     Br1632   1.929       .  S
C1637      C1638   1.416       .  A
C1637      C1642   1.422       .  A
C1638      C1639   1.413       .  A
C1638     Br1650   1.927       .  S
C1639      C1640   1.409       .  A
C1639     Br1654   1.929       .  S
C1640      C1641   1.406       .  A
C1641      C1642   1.405       .  A
C1642     Br1653   1.936       .  S
C1643      C1644   1.411       .  A
C1643      C1648   1.408       .  A
C1644      C1645   1.409       .  A
C1645      C1646   1.413       .  A
C1645     Br1651   1.931       .  S
C1646      C1647   1.414       .  A
C1647      C1648   1.407       .  A
C1647     Br1656   1.930       .  S
C1648     Br1652   1.931       .  S
