geometry optimzed in LAMMPS
_audit_creation_date              2020-11-30 
_audit_creation_method            'lammps2cif' 
_symmetry_space_group_name_H-M    'P1' 
_symmetry_Int_Tables_number       1 
_symmetry_cell_setting            triclinic 
loop_ 
_symmetry_equiv_pos_as_xyz 
  x,y,z 
_cell_length_a                    41.1151697 
_cell_length_b                    33.81678747948351 
_cell_length_c                    42.77337994960087 
_cell_angle_alpha                 90.91660814995387 
_cell_angle_beta                  90.97812097690829 
_cell_angle_gamma                 89.6480930545042 
loop_ 
_atom_site_label 
_atom_site_type_symbol 
_atom_site_fract_x 
_atom_site_fract_y 
_atom_site_fract_z 
_atom_site_charge 
O1          O  0.91618769  0.31549511  0.20878078    -0.57200
C2          C  0.90716425  0.29656648  0.30754605     0.75500
O3          O  0.85053607  0.22298588  0.24442472    -0.58300
C4          C  0.90920220  0.29518030  0.18436306     0.75400
C5          C  0.95454710  0.20888825  0.24691601     0.77800
Cd6        Cd  0.90065149  0.26320861  0.24560614     1.37500
O7          O  0.90966460  0.31791646  0.28359201    -0.57100
O8          O  0.95774668  0.24608843  0.24795731    -0.56000
C9          C  0.83148965  0.25273414  0.24478495     0.77800
O10         O  0.92552082  0.19643068  0.24513444    -0.58300
O11         O  0.90197818  0.26019580  0.30225184    -0.56800
O12         O  0.89827288  0.26093487  0.18880367    -0.56800
O13         O  0.84488619  0.28623083  0.24595026    -0.55900
O14         O  0.60961428  0.16906060  0.20649965    -0.57200
C15         C  0.61475327  0.18990291  0.30597177     0.75500
O16         O  0.67247664  0.26240476  0.24507853    -0.58300
C17         C  0.61520093  0.18956492  0.18255522     0.75400
C18         C  0.56929433  0.27905861  0.24446944     0.77800
Cd19       Cd  0.62196207  0.22299332  0.24464743     1.37500
O20         O  0.60866507  0.16987791  0.28125306    -0.57100
O21         O  0.56515820  0.24228764  0.24020998    -0.56000
C22         C  0.69126415  0.23242100  0.24535808     0.77800
O23         O  0.59852638  0.29007355  0.24830254    -0.58300
O24         O  0.62317715  0.22535368  0.30198312    -0.56800
O25         O  0.62347413  0.22507005  0.18766132    -0.56800
O26         O  0.67752789  0.19914364  0.24502424    -0.55900
O27         O  0.91474956  0.33820963  0.03575726    -0.57200
C28         C  0.91029865  0.02308473  0.43481445     0.75500
O29         O  0.85685578  0.10052125  0.49212528    -0.58300
C30         C  0.91243756  0.02561262  0.05848901     0.75400
C31         C  0.96092513  0.10606108  0.49929955     0.77800
Cd32       Cd  0.90517920  0.05704210  0.49623259     1.37500
O33         O  0.91362649  0.00211831  0.45901252    -0.57100
O34         O  0.96345695  0.06787080  0.99758053    -0.56000
C35         C  0.83724050  0.06951398  0.99369036     0.77800
O36         O  0.93254256  0.12111692  0.49822181    -0.58300
O37         O  0.90579305  0.05974089  0.43944836    -0.56800
O38         O  0.90292731  0.06035575  0.05265403    -0.56800
O39         O  0.84901603  0.03793700  0.49610316    -0.55900
O40         O  0.61323738  0.14396908  0.03328398    -0.57200
C41         C  0.61657500  0.13095959  0.43328891     0.75500
O42         O  0.67644667  0.05448911  0.49074315    -0.58300
C43         C  0.62078857  0.12287535  0.05668060     0.75400
C44         C  0.57405237  0.03986196  0.49481727     0.77800
Cd45       Cd  0.62647781  0.09534564  0.49364437     1.37500
O46         O  0.61261544  0.15098120  0.45828069    -0.57100
O47         O  0.57031643  0.07447731  0.99646965    -0.56000
C48         C  0.69602948  0.08046634  0.99175671     0.77800
O49         O  0.60326457  0.02785138  0.49326897    -0.58300
O50         O  0.62417658  0.09497583  0.43694887    -0.56800
O51         O  0.63148394  0.08869862  0.05026487    -0.56800
O52         O  0.68250645  0.11743654  0.49366924    -0.55900
O53         O  0.41777119  0.15777789  0.21288737    -0.57200
C54         C  0.41218406  0.13755118  0.31047143     0.75500
O55         O  0.35264939  0.06637253  0.25191714    -0.58300
C56         C  0.41421520  0.13622095  0.18855213     0.75400
C57         C  0.45598675  0.04991734  0.24806820     0.77800
Cd58       Cd  0.40292439  0.10536495  0.24902024     1.37500
O59         O  0.41390466  0.15944682  0.28677089    -0.57100
O60         O  0.46001603  0.08686367  0.25119388    -0.56000
C61         C  0.33322522  0.09567943  0.25058940     0.77800
O62         O  0.42669459  0.03850151  0.24563330    -0.58300
O63         O  0.40716170  0.10122885  0.30486646    -0.56800
O64         O  0.40457253  0.10130027  0.19292168    -0.56800
O65         O  0.34634276  0.12904263  0.24752109    -0.55900
O66         O  0.11387131  0.32930323  0.22327885    -0.57200
C67         C  0.11298881  0.02405462  0.32110852     0.75500
O68         O  0.17418269  0.09737115  0.26048643    -0.58300
C69         C  0.11933286  0.02380969  0.19838236     0.75400
C70         C  0.07148288  0.11134108  0.25564170     0.77800
Cd71       Cd  0.12472048  0.05649223  0.26053096     1.37500
O72         O  0.11031354  0.33053573  0.29720044    -0.57100
O73         O  0.06813759  0.07418815  0.25533123    -0.56000
C74         C  0.19394924  0.06835561  0.26078784     0.77800
O75         O  0.10042195  0.12368187  0.25889167    -0.58300
O76         O  0.12318660  0.05892048  0.31746887    -0.56800
O77         O  0.12804386  0.05878873  0.20455182    -0.56800
O78         O  0.18128886  0.03456053  0.26293724    -0.55900
O79         O  0.42138846  0.16763420  0.03623452    -0.57200
C80         C  0.41273028  0.19113926  0.43965186     0.75500
O81         O  0.35449174  0.26190320  0.50043136    -0.58300
C82         C  0.41803235  0.18831800  0.06095465     0.75400
C83         C  0.45828457  0.27785469  0.50115418     0.77800
Cd84       Cd  0.40585158  0.22282984  0.50110041     1.37500
O85         O  0.41896864  0.17023333  0.46339683    -0.57100
O86         O  0.46284622  0.24030148  0.99754364    -0.56000
C87         C  0.33663811  0.23081743  0.00047042     0.77800
O88         O  0.42929682  0.28864841  0.00338234    -0.58300
O89         O  0.40410203  0.22658639  0.44485531    -0.56800
O90         O  0.40971495  0.22404544  0.05720904    -0.56800
O91         O  0.35040464  0.19867595  0.50124798    -0.55900
O92         O  0.11432098  0.31022493  0.04964616    -0.57200
C93         C  0.11355869  0.29439764  0.44918866     0.75500
O94         O  0.17713902  0.22218561  0.50507730    -0.58300
C95         C  0.12068245  0.28763967  0.07246024     0.75400
C96         C  0.07278893  0.20811478  0.50597292     0.77800
Cd97       Cd  0.12637683  0.26075957  0.50910242     1.37500
O98         O  0.11008762  0.31483368  0.47408426    -0.57100
O99         O  0.06985989  0.24483324  0.00683311    -0.56000
C100        C  0.19611325  0.25150886  0.00419445     0.77800
O101        O  0.10189543  0.19404618  0.00651222    -0.58300
O102        O  0.12284334  0.25897513  0.45280371    -0.56800
O103        O  0.12982011  0.25300443  0.06525621    -0.56800
O104        O  0.18176720  0.28556009  0.50590673    -0.55900
C105        C  0.24556702  0.21264948  0.51299387    -0.05100
C106        C  0.23209302  0.24718057  0.00205217     0.00800
C107        C  0.25259316  0.27651100  0.98952312    -0.07800
C108        C  0.28644587  0.26968994  0.98943132    -0.05100
C109        C  0.30046489  0.23456533  0.00070284     0.00800
C110        C  0.27929816  0.20558177  0.51256681    -0.07700
C111        C  0.29227686  0.16641634  0.52477918     0.62700
H112        H  0.22963793  0.19048257  0.52223640     0.13400
H113        H  0.30236976  0.29198820  0.98035592     0.13400
C114        C  0.23915402  0.31452914  0.97565509     0.62900
F115        F  0.26794729  0.14345278  0.53700576    -0.22200
F116        F  0.31573012  0.17182471  0.04760191    -0.19600
F117        F  0.30616829  0.14492141  0.50061944    -0.19200
F118        F  0.22648231  0.33837070  0.99907529    -0.19300
F119        F  0.21548389  0.97332782  0.95196885    -0.19600
F120        F  0.26349453  0.00299798  0.95921379    -0.22300
C121        C  0.10846794  0.28246317  0.39213163    -0.05100
C122        C  0.10814922  0.31008538  0.41710494     0.00800
C123        C  0.10614787  0.02502743  0.40943453    -0.07800
C124        C  0.10616946  0.03630291  0.37788872    -0.05100
C125        C  0.10790506  0.00849920  0.35309348     0.00800
C126        C  0.10861601  0.29393976  0.36069074    -0.07700
C127        C  0.11001626  0.26210049  0.33523261     0.62700
H128        H  0.10963373  0.25130859  0.39745518     0.13400
H129        H  0.10578264  0.06742564  0.37236138     0.13400
C130        C  0.10501799  0.05690211  0.43487937     0.62900
F131        F  0.10969369  0.22434300  0.34729462    -0.22200
F132        F  0.13831595  0.26582993  0.31852623    -0.19600
F133        F  0.08326767  0.26562364  0.31540424    -0.19200
F134        F  0.13329120  0.05568191  0.45284687    -0.19300
F135        F  0.07444466  0.37430257  0.45380383    -0.19600
F136        F  0.10221535  0.09445788  0.42266231    -0.22300
C137        C  0.12079355  0.29357323  0.16218155    -0.05100
C138        C  0.11711772  0.00849915  0.16561039     0.00800
C139        C  0.11407623  0.03357544  0.13928524    -0.07800
C140        C  0.11353032  0.34242791  0.11075270    -0.05100
C141        C  0.11829554  0.30169504  0.10561263     0.00800
C142        C  0.12116646  0.27645747  0.13194032    -0.07700
C143        C  0.12486647  0.23177627  0.12872491     0.62700
H144        H  0.12385836  0.27499266  0.18241442     0.13400
H145        H  0.11097322  0.36140415  0.09071136     0.13400
C146        C  0.11063422  0.07832649  0.14240137     0.62900
F147        F  0.12419490  0.21333569  0.15738251    -0.22200
F148        F  0.15433393  0.22253229  0.11520880    -0.19600
F149        F  0.09962389  0.21651591  0.11054295    -0.19200
F150        F  0.13957733  0.09439179  0.15340780    -0.19300
F151        F  0.08582854  0.08790016  0.16268610    -0.19600
F152        F  0.10322087  0.09570671  0.11404171    -0.22300
C153        C  0.40847962  0.12516647  0.36696359    -0.05100
C154        C  0.41475514  0.15250942  0.34333291     0.00800
C155        C  0.42195130  0.19231812  0.35194115    -0.07800
C156        C  0.42205717  0.20299978  0.38384222    -0.05100
C157        C  0.41499564  0.17576338  0.40720095     0.00800
C158        C  0.40802669  0.13606108  0.39870792    -0.07700
C159        C  0.39903306  0.10542176  0.42265354     0.62700
H160        H  0.40318153  0.09483340  0.36039383     0.13400
H161        H  0.42730582  0.23322385  0.39087032     0.13400
C162        C  0.42937115  0.22369612  0.32807504     0.62900
F163        F  0.38960692  0.06994499  0.40877014    -0.22200
F164        F  0.37337738  0.11915734  0.44040575    -0.19600
F165        F  0.42561226  0.09788830  0.44185522    -0.19200
F166        F  0.40252300  0.22959578  0.30873783    -0.19300
F167        F  0.45573723  0.21182112  0.31052902    -0.19600
F168        F  0.43700235  0.25974648  0.34206380    -0.22300
C169        C  0.41724014  0.12184294  0.13186943    -0.05100
C170        C  0.42029130  0.15004424  0.15630689     0.00800
C171        C  0.42839179  0.18953373  0.14891953    -0.07800
C172        C  0.42873717  0.20009606  0.11727643    -0.05100
C173        C  0.42266940  0.17253492  0.09293700     0.00800
C174        C  0.41892324  0.13210580  0.10027388    -0.07700
C175        C  0.41625599  0.09979012  0.07529546     0.62700
H176        H  0.41286159  0.09132581  0.13764791     0.13400
H177        H  0.43307256  0.23057783  0.11128201     0.13400
C178        C  0.43624360  0.22075766  0.17380521     0.62900
F179        F  0.41354782  0.06257017  0.08801799    -0.22200
F180        F  0.44393972  0.09973660  0.05739180    -0.19600
F181        F  0.38909065  0.10613732  0.05649007    -0.19200
F182        F  0.46113506  0.20741177  0.19317585    -0.19300
F183        F  0.40885508  0.22891291  0.19113937    -0.19600
F184        F  0.44644476  0.25580205  0.16094516    -0.22300
C185        C  0.24175793  0.11274130  0.26225970    -0.05100
C186        C  0.22980203  0.07409951  0.25829140     0.00800
C187        C  0.25199524  0.04306297  0.25064871    -0.07800
C188        C  0.28521932  0.05200063  0.24828603    -0.05100
C189        C  0.29725308  0.09051231  0.25257063     0.00800
C190        C  0.27494803  0.12181172  0.25925567    -0.07700
C191        C  0.28552156  0.16465952  0.26337334     0.62700
H192        H  0.22465150  0.13619681  0.26769925     0.13400
H193        H  0.30229924  0.02851522  0.24285521     0.13400
C194        C  0.24204010  0.33035906  0.24484306     0.62900
F195        F  0.25976443  0.18951127  0.27075855    -0.22200
F196        F  0.29853042  0.17785281  0.23584276    -0.19600
F197        F  0.30839894  0.16783436  0.28735032    -0.19200
F198        F  0.21798418  0.32933801  0.22182629    -0.19300
F199        F  0.23056170  0.31421193  0.27200229    -0.19600
F200        F  0.26745879  0.30668561  0.23463002    -0.22300
C201        C  0.51450071  0.02886468  0.99628851    -0.05100
C202        C  0.54543803  0.01311170  0.49662448     0.00800
C203        C  0.54651549  0.30994939  0.50385078    -0.07800
C204        C  0.51781072  0.28758884  0.50413349    -0.05100
C205        C  0.48670101  0.30494624  0.50134355     0.00800
C206        C  0.48551107  0.00739625  0.99840840    -0.07700
C207        C  0.45331274  0.02973154  0.99825445     0.62700
H208        H  0.51307373  0.06057128  0.99352866     0.13400
H209        H  0.51957831  0.25587674  0.50679678     0.15000
C210        C  0.57903133  0.28889028  0.50834052     0.62900
F211        F  0.45755931  0.07012170  0.99593332    -0.22200
F212        F  0.43733413  0.02325556  0.02587481    -0.19600
F213        F  0.43415502  0.01914567  0.47197025    -0.19200
F214        F  0.59602376  0.30535099  0.03264828    -0.19300
F215        F  0.59727070  0.29211961  0.48164460    -0.19600
F216        F  0.57533388  0.24899129  0.51409414    -0.22300
C217        C  0.04532521  0.14599741  0.51881104    -0.05100
C218        C  0.04408844  0.18219788  0.50331077     0.00800
C219        C  0.01566073  0.19288714  0.48598518    -0.07800
C220        C  0.98921510  0.16688022  0.48533115    -0.05100
C221        C  0.99027453  0.13092666  0.50112435     0.00800
C222        C  0.01871767  0.12011211  0.51834650    -0.07700
C223        C  0.02081796  0.08228257  0.53706514     0.62700
H224        H  0.06752365  0.13810812  0.03109316     0.13400
H225        H  0.96727231  0.17449972  0.47234685     0.13400
C226        C  0.01305490  0.23114115  0.46781865     0.62900
F227        F  0.04868457  0.08087181  0.55566988    -0.22200
F228        F  0.02133295  0.04983247  0.51699541    -0.19600
F229        F  0.99478886  0.07946996  0.05584930    -0.19200
F230        F  0.03987534  0.23521386  0.44905428    -0.19300
F231        F  0.01140927  0.26242661  0.98756576    -0.19600
F232        F  0.98564706  0.23142401  0.94790233    -0.22300
C233        C  0.78255957  0.04375801  0.48297239    -0.05100
C234        C  0.80126551  0.07437422  0.99191115     0.00800
C235        C  0.78474779  0.11024301  0.99905151    -0.07800
C236        C  0.75053582  0.11038615  0.99856389    -0.05100
C237        C  0.73217254  0.07635626  0.99113121     0.00800
C238        C  0.74837983  0.04393469  0.48251830    -0.07700
C239        C  0.73063355  0.00605459  0.47330564     0.62700
H240        H  0.79538544  0.01671312  0.47697596     0.13400
H241        H  0.73777183  0.13753842  0.00432619     0.13400
C242        C  0.80269354  0.14820118  0.00758900     0.62900
F243        F  0.74789862  0.31156979  0.47049605    -0.22200
F244        F  0.70924625  0.01306648  0.44867695    -0.19600
F245        F  0.71056006  0.32928413  0.50545273    -0.19200
F246        F  0.82027848  0.16048132  0.98226364    -0.19300
F247        F  0.82346696  0.14194949  0.03283309    -0.19600
F248        F  0.78162380  0.17859862  0.01577175    -0.22300
C249        C  0.50977954  0.28960409  0.24697074    -0.05100
C250        C  0.54086913  0.30665726  0.24538284     0.00800
C251        C  0.54431013  0.01678060  0.24339084    -0.07800
C252        C  0.51556591  0.03958006  0.24436565    -0.05100
C253        C  0.48457156  0.02250524  0.24711192     0.00800
C254        C  0.48111150  0.31244491  0.24801980    -0.07700
C255        C  0.44863015  0.29156289  0.25057116     0.62700
H256        H  0.50798503  0.25772221  0.24761974     0.13400
H257        H  0.51721498  0.07140206  0.24277222     0.13400
C258        C  0.57670093  0.03758092  0.23976881     0.62900
F259        F  0.45226844  0.25099823  0.25287878    -0.22200
F260        F  0.43090550  0.96588200  0.22555622    -0.19600
F261        F  0.43276695  0.30495249  0.27700589    -0.19200
F262        F  0.59206491  0.02332196  0.21333519    -0.19300
F263        F  0.59437184  0.36184230  0.26982788    -0.19600
F264        F  0.57295622  0.07806709  0.23664637    -0.22300
C265        C  0.60832896  0.20038965  0.36318361    -0.05100
C266        C  0.61266396  0.17352767  0.33808192     0.00800
C267        C  0.61663585  0.13277072  0.34456149    -0.07800
C268        C  0.61679129  0.12072306  0.37585921    -0.05100
C269        C  0.61336299  0.14756357  0.40112470     0.00800
C270        C  0.60839119  0.18831459  0.39462713    -0.07700
C271        C  0.60335380  0.21925006  0.42032046     0.62700
H272        H  0.60503458  0.23137291  0.35791568     0.13400
H273        H  0.62004734  0.08966348  0.38078429     0.13400
C274        C  0.62143198  0.10187831  0.31886168     0.62900
F275        F  0.59854209  0.25672816  0.40844091    -0.22200
F276        F  0.63043322  0.22073348  0.43993170    -0.19600
F277        F  0.57617000  0.20995227  0.43728699    -0.19200
F278        F  0.64808193  0.11145041  0.30122216    -0.19300
F279        F  0.59382712  0.10026657  0.30002114    -0.19600
F280        F  0.62678110  0.06444164  0.33062551    -0.22300
C281        C  0.60674331  0.17703383  0.09393852    -0.05100
C282        C  0.61747891  0.13779555  0.08958476     0.00800
C283        C  0.62455619  0.11459656  0.11649466    -0.07800
C284        C  0.62256396  0.13264417  0.14632267    -0.05100
C285        C  0.61356941  0.17242168  0.15036383     0.00800
C286        C  0.60429141  0.19470500  0.12380117    -0.07700
C287        C  0.59137831  0.23679228  0.12662374     0.62700
H288        H  0.60070918  0.19436624  0.07356218     0.13400
H289        H  0.62899917  0.11595504  0.16694184     0.13400
C290        C  0.63424443  0.07111500  0.11439766     0.62900
F291        F  0.57705362  0.24927707  0.09891338    -0.22200
F292        F  0.61660586  0.26223312  0.13417084    -0.19600
F293        F  0.56802763  0.23915006  0.14950743    -0.19200
F294        F  0.66357849  0.06705869  0.09927681    -0.19300
F295        F  0.61036346  0.04998191  0.09836999    -0.19600
F296        F  0.63801720  0.05444805  0.14361424    -0.22300
C297        C  0.01446137  0.20097082  0.24863364    -0.05100
C298        C  0.98379862  0.18251062  0.24796939     0.00800
C299        C  0.98248036  0.14056101  0.24847442    -0.07800
C300        C  0.01180207  0.11922964  0.25116478    -0.05100
C301        C  0.04242160  0.13771262  0.25248621     0.00800
C302        C  0.04384565  0.17953048  0.25034113    -0.07700
C303        C  0.07579734  0.20189261  0.24916951     0.62700
H304        H  0.01538919  0.23288371  0.24765594     0.13400
H305        H  0.01084550  0.08733322  0.25229997     0.13400
C306        C  0.95070493  0.11780727  0.24618911     0.62900
F307        F  0.07103965  0.24220246  0.24578921    -0.22200
F308        F  0.09355446  0.18847932  0.22390619    -0.19600
F309        F  0.09352011  0.19643312  0.27652791    -0.19200
F310        F  0.93446246  0.12683211  0.21860709    -0.19300
F311        F  0.93149344  0.12751234  0.27142140    -0.19600
F312        F  0.95563665  0.07724391  0.24623596    -0.22300
C313        C  0.89820602  0.28777125  0.36409353    -0.05100
C314        C  0.90935365  0.31233547  0.34028312     0.00800
C315        C  0.92242138  0.01902973  0.34714115    -0.07800
C316        C  0.92232485  0.03112734  0.37880995    -0.05100
C317        C  0.91134387  0.00643544  0.40252539     0.00800
C318        C  0.89861846  0.29959610  0.39575685    -0.07700
C319        C  0.88574562  0.27163976  0.42009409     0.62700
H320        H  0.88870952  0.25894026  0.35768080     0.13400
H321        H  0.93091943  0.06034867  0.38538560     0.13400
C322        C  0.93543800  0.04708125  0.32298976     0.62900
F323        F  0.87362998  0.23708949  0.40672296    -0.22200
F324        F  0.86081245  0.28977862  0.43637544    -0.19600
F325        F  0.91057540  0.26127398  0.44064860    -0.19200
F326        F  0.91067037  0.05780423  0.30249607    -0.19300
F327        F  0.96032191  0.02887390  0.30670305    -0.19600
F328        F  0.94780507  0.08139469  0.33656813    -0.22300
C329        C  0.91367829  0.01795924  0.14789113    -0.05100
C330        C  0.91251507  0.31114878  0.15236993     0.00800
C331        C  0.91689274  0.28670032  0.12541944    -0.07800
C332        C  0.91613160  0.30421696  0.09581390    -0.05100
C333        C  0.91507090  0.01061908  0.09109619     0.00800
C334        C  0.91443442  0.03556032  0.11828203    -0.07700
C335        C  0.91526477  0.08047023  0.11664902     0.62700
H336        H  0.91161914  0.03645286  0.16867096     0.13400
H337        H  0.91794410  0.28554223  0.07512003     0.13400
C338        C  0.92321703  0.24245471  0.12752494     0.62900
F339        F  0.91903179  0.09801800  0.14595560    -0.22200
F340        F  0.88654680  0.09461821  0.10364179    -0.19600
F341        F  0.94125426  0.09194956  0.09886132    -0.19200
F342        F  0.89509369  0.22327887  0.13573225    -0.19300
F343        F  0.94750079  0.23528360  0.14954865    -0.19600
F344        F  0.93333211  0.22639614  0.09930378    -0.22300
C345        C  0.78267760  0.21286631  0.25505969    -0.05100
C346        C  0.79549944  0.24846144  0.24437597     0.00800
C347        C  0.77385453  0.27844108  0.23353924    -0.07800
C348        C  0.74017316  0.27179191  0.23466227    -0.05100
C349        C  0.72731046  0.23627442  0.24546127     0.00800
C350        C  0.74898181  0.20596722  0.25576053    -0.07700
C351        C  0.73709783  0.16662014  0.26789105     0.62700
H352        H  0.79946591  0.19028041  0.26309289     0.13400
H353        H  0.72344085  0.29448363  0.22670778     0.13400
C354        C  0.78578441  0.31702217  0.22007320     0.62900
F355        F  0.76237596  0.14339996  0.27923917    -0.22200
F356        F  0.72182885  0.14550107  0.24394701    -0.19600
F357        F  0.71567956  0.17310216  0.29207205    -0.19200
F358        F  0.80801911  0.30919445  0.19681453    -0.19300
F359        F  0.80135986  0.00716973  0.24041246    -0.19600
F360        F  0.76263048  0.00483628  0.20313415    -0.22300
O361        O  0.91600927  0.31576909  0.70873671    -0.57200
C362        C  0.90688254  0.29762996  0.80779141     0.75500
O363        O  0.85061037  0.22374983  0.74506520    -0.58300
C364        C  0.90909248  0.29513902  0.68446111     0.75400
C365        C  0.95464766  0.20958063  0.74758399     0.77800
Cd366      Cd  0.90069181  0.26384179  0.74595445     1.37500
O367        O  0.90970266  0.31879453  0.78376781    -0.57100
O368        O  0.95776962  0.24679565  0.74855746    -0.56000
C369        C  0.83156543  0.25350590  0.74522083     0.77800
O370        O  0.92564668  0.19702937  0.74580091    -0.58300
O371        O  0.90156289  0.26126763  0.80259623    -0.56800
O372        O  0.89835326  0.26086568  0.68915899    -0.56800
O373        O  0.84496465  0.28700585  0.74604300    -0.55900
O374        O  0.61030571  0.16921792  0.70693547    -0.57200
C375        C  0.61471582  0.18824789  0.80635213     0.75500
O376        O  0.67252237  0.26244556  0.74634427    -0.58300
C377        C  0.61537967  0.19021289  0.68315212     0.75400
C378        C  0.56963572  0.27884423  0.74576506     0.77800
Cd379      Cd  0.62219287  0.22267039  0.74552106     1.37500
O380        O  0.60861332  0.16872311  0.78139322    -0.57100
O381        O  0.56542842  0.24212997  0.74124484    -0.56000
C382        C  0.69143587  0.23258610  0.74624692     0.77800
O383        O  0.59887097  0.28972741  0.74981577    -0.58300
O384        O  0.62331950  0.22372385  0.80282121    -0.56800
O385        O  0.62322496  0.22580863  0.68851548    -0.56800
O386        O  0.67784821  0.19921901  0.74557774    -0.55900
O387        O  0.91513517  0.33714581  0.53562186    -0.57200
C388        C  0.91042585  0.02151314  0.93460276     0.75500
O389        O  0.85703759  0.09807842  0.99239674    -0.58300
C390        C  0.91069866  0.02627462  0.55840446     0.75400
C391        C  0.96132476  0.10515306  0.99849426     0.77800
Cd392      Cd  0.90583615  0.05549653  0.99607461     1.37500
O393        O  0.91400178  0.00049742  0.95875681    -0.57100
O394        O  0.96288463  0.06877607  0.49820345    -0.56000
C395        C  0.83682625  0.07218605  0.49329638     0.77800
O396        O  0.93285404  0.11997463  0.99737263    -0.58300
O397        O  0.90608150  0.05818606  0.93930133    -0.56800
O398        O  0.90144618  0.06116218  0.55274434    -0.56800
O399        O  0.84974025  0.03541349  0.99641089    -0.55900
O400        O  0.61347796  0.14699946  0.53351052    -0.57200
C401        C  0.61656959  0.12782331  0.93321745     0.75500
O402        O  0.67672487  0.05135034  0.99094367    -0.58300
C403        C  0.61997947  0.12515223  0.55673743     0.75400
C404        C  0.57411495  0.03732195  0.99589431     0.77800
Cd405      Cd  0.62679697  0.09236017  0.99373110     1.37500
O406        O  0.61294366  0.14782618  0.95826257    -0.57100
O407        O  0.57003154  0.07699295  0.49477959    -0.56000
C408        C  0.69572962  0.08361439  0.49162610     0.77800
O409        O  0.60318967  0.02509451  0.99343195    -0.58300
O410        O  0.62403223  0.09178380  0.93681508    -0.56800
O411        O  0.62951571  0.09056563  0.55004732    -0.56800
O412        O  0.68281866  0.11432214  0.99356570    -0.55900
O413        O  0.41842537  0.15721380  0.71304480    -0.57200
C414        C  0.41504099  0.13568294  0.81048341     0.75500
O415        O  0.35352615  0.06630098  0.75177739    -0.58300
C416        C  0.41475688  0.13581444  0.68863988     0.75400
C417        C  0.45639801  0.04802966  0.74731042     0.77800
Cd418      Cd  0.40416017  0.10440314  0.74905641     1.37500
O419        O  0.41799968  0.15733882  0.78678536    -0.57100
O420        O  0.46091688  0.08489822  0.75025374    -0.56000
C421        C  0.33438267  0.09591839  0.75123539     0.77800
O422        O  0.42695596  0.03709755  0.74538264    -0.58300
O423        O  0.40803022  0.09985292  0.80490159    -0.56800
O424        O  0.40533969  0.10078339  0.69292857    -0.56800
O425        O  0.34783462  0.12920503  0.74888843    -0.55900
O426        O  0.11436300  0.32976141  0.72338783    -0.57200
C427        C  0.11415330  0.02518601  0.82123631     0.75500
O428        O  0.17517835  0.09896487  0.76068389    -0.58300
C429        C  0.12002035  0.02575129  0.69864515     0.75400
C430        C  0.07200296  0.11271373  0.75612341     0.77800
Cd431      Cd  0.12554867  0.05823704  0.76079643     1.37500
O432        O  0.11134788  0.33072919  0.79727085    -0.57100
O433        O  0.06886442  0.07553401  0.75559897    -0.56000
C434        C  0.19483223  0.06982661  0.76098913     0.77800
O435        O  0.10086980  0.12527372  0.75952037    -0.58300
O436        O  0.12414462  0.06018536  0.81779426    -0.56800
O437        O  0.12889445  0.06068633  0.70478082    -0.56800
O438        O  0.18201640  0.03611895  0.76307574    -0.55900
O439        O  0.42078141  0.16831494  0.53633619    -0.57200
C440        C  0.41428765  0.18882423  0.93964351     0.75500
O441        O  0.35505153  0.26082085  0.99990328    -0.58300
C442        C  0.41758808  0.18883728  0.56116971     0.75400
C443        C  0.45854431  0.27722940  0.00048486     0.77800
Cd444      Cd  0.40640865  0.22165621  0.00069011     1.37500
O445        O  0.42077462  0.16848843  0.96363284    -0.57100
O446        O  0.46233215  0.24098783  0.49733860    -0.56000
C447        C  0.33613408  0.23183848  0.50094750     0.77800
O448        O  0.42918141  0.28942837  0.50487705    -0.58300
O449        O  0.40453128  0.22390584  0.94454142    -0.56800
O450        O  0.40936843  0.22463045  0.55760219    -0.56800
O451        O  0.35086907  0.19762229  0.00075273    -0.55900
O452        O  0.11390275  0.31060481  0.54982599    -0.57200
C453        C  0.11404821  0.29439733  0.94910882     0.75500
O454        O  0.17754552  0.22161212  0.00478656    -0.58300
C455        C  0.12079891  0.28817079  0.57260563     0.75400
C456        C  0.07302399  0.20770938  0.00522681     0.77800
Cd457      Cd  0.12673809  0.26031895  0.00890019     1.37500
O458        O  0.11057937  0.31466187  0.97408952    -0.57100
O459        O  0.06960096  0.24522372  0.50779847    -0.56000
C460        C  0.19562929  0.25213170  0.50417142     0.77800
O461        O  0.10166652  0.19444557  0.50686668    -0.58300
O462        O  0.12335281  0.25895421  0.95255795    -0.56800
O463        O  0.13030728  0.25369045  0.56538358    -0.56800
O464        O  0.18230498  0.28494698  0.00620439    -0.55900
C465        C  0.24604588  0.21185849  0.01280237    -0.05100
C466        C  0.23159604  0.24786571  0.50205802     0.00800
C467        C  0.25207835  0.27718101  0.48948600    -0.07800
C468        C  0.28593762  0.27046041  0.48955658    -0.05100
C469        C  0.29997170  0.23546779  0.50104823     0.00800
C470        C  0.27976781  0.20468095  0.01219154    -0.07700
C471        C  0.29271861  0.16536649  0.02412665     0.62700
H472        H  0.23010517  0.18967868  0.02200918     0.13400
H473        H  0.30185918  0.29273629  0.48044455     0.13400
C474        C  0.23863137  0.31507913  0.47542105     0.62900
F475        F  0.26840270  0.14237303  0.03633738    -0.22200
F476        F  0.31515268  0.17316823  0.54832513    -0.19600
F477        F  0.30643595  0.14405198  0.99977495    -0.19200
F478        F  0.22578199  0.33901293  0.49869076    -0.19300
F479        F  0.21594217  0.97665997  0.45283472    -0.19600
F480        F  0.26378889  0.00648840  0.46079444    -0.22300
C481        C  0.10796163  0.28273196  0.89209498    -0.05100
C482        C  0.10855803  0.31029152  0.91711238     0.00800
C483        C  0.10763451  0.02492403  0.90961798    -0.07800
C484        C  0.10782403  0.03666449  0.87818447    -0.05100
C485        C  0.10919685  0.00921065  0.85312326     0.00800
C486        C  0.10805090  0.29427944  0.86066312    -0.07700
C487        C  0.10825677  0.26245436  0.83514083     0.62700
H488        H  0.10845741  0.25154414  0.89737737     0.13400
H489        H  0.10778115  0.06787416  0.87295981     0.13400
C490        C  0.10681083  0.05645803  0.93534314     0.62900
F491        F  0.10650882  0.22474366  0.84714074    -0.22200
F492        F  0.13668280  0.26464414  0.81843466    -0.19600
F493        F  0.08166490  0.26746270  0.81532177    -0.19200
F494        F  0.13499729  0.05446829  0.95339030    -0.19300
F495        F  0.07649727  0.37553052  0.95413919    -0.19600
F496        F  0.10453916  0.09423828  0.92346899    -0.22300
C497        C  0.12105405  0.29395895  0.66228724    -0.05100
C498        C  0.11768391  0.01041308  0.66591137     0.00800
C499        C  0.11415712  0.03542089  0.63960389    -0.07800
C500        C  0.11430280  0.34301361  0.61091720    -0.05100
C501        C  0.11861640  0.30222453  0.60574689     0.00800
C502        C  0.12120189  0.27689259  0.63203013    -0.07700
C503        C  0.12430393  0.23215472  0.62873768     0.62700
H504        H  0.12392386  0.27529508  0.68249496     0.13400
H505        H  0.11196387  0.36204974  0.59089037     0.13400
C506        C  0.11037994  0.08012640  0.64274136     0.62900
F507        F  0.12311163  0.21365066  0.65734275    -0.22200
F508        F  0.15376337  0.22234987  0.61543686    -0.19600
F509        F  0.09901337  0.21746817  0.61031701    -0.19200
F510        F  0.13934547  0.09653554  0.65334198    -0.19300
F511        F  0.08582349  0.08942953  0.66337453    -0.19600
F512        F  0.10239044  0.09738165  0.61446512    -0.22300
C513        C  0.41576646  0.12227333  0.86700935    -0.05100
C514        C  0.41839957  0.15046473  0.84331462     0.00800
C515        C  0.42218290  0.19096369  0.85187042    -0.07800
C516        C  0.42182265  0.20151790  0.88374686    -0.05100
C517        C  0.41767052  0.17348674  0.90722081     0.00800
C518        C  0.41497557  0.13294535  0.89880414    -0.07700
C519        C  0.41051336  0.10095063  0.92285107     0.62700
H520        H  0.41360663  0.09136671  0.86043286     0.13400
H521        H  0.42434120  0.23229857  0.89064383     0.13400
C522        C  0.42630636  0.22326404  0.82798036     0.62900
F523        F  0.40572692  0.06402212  0.90913887    -0.22200
F524        F  0.38369538  0.10950327  0.94091617    -0.19600
F525        F  0.43807310  0.09878623  0.94163605    -0.19200
F526        F  0.39909961  0.22512701  0.80856791    -0.19300
F527        F  0.45368274  0.21540828  0.81055509    -0.19600
F528        F  0.43022155  0.26021138  0.84191534    -0.22300
C529        C  0.41743501  0.12186263  0.63187247    -0.05100
C530        C  0.42047695  0.14992600  0.65640886     0.00800
C531        C  0.42829377  0.18953587  0.64913327    -0.07800
C532        C  0.42834297  0.20031704  0.61753071    -0.05100
C533        C  0.42234677  0.17285630  0.59309667     0.00800
C534        C  0.41893193  0.13233407  0.60030515    -0.07700
C535        C  0.41650553  0.10011146  0.57523619     0.62700
H536        H  0.41327199  0.09126732  0.63755488     0.13400
H537        H  0.43246152  0.23088188  0.61164940     0.13400
C538        C  0.43624418  0.22063603  0.67409237     0.62900
F539        F  0.41431883  0.06277140  0.58785690    -0.22200
F540        F  0.44408107  0.10063312  0.55719516    -0.19600
F541        F  0.38916746  0.10609126  0.55658887    -0.19200
F542        F  0.46139792  0.20731736  0.69316109    -0.19300
F543        F  0.40901317  0.22847973  0.69173383    -0.19600
F544        F  0.44614248  0.25585035  0.66129446    -0.22300
C545        C  0.24284109  0.11394536  0.76204891    -0.05100
C546        C  0.23073760  0.07530156  0.75860289     0.00800
C547        C  0.25287117  0.04394426  0.75163109    -0.07800
C548        C  0.28616310  0.05258384  0.74949718    -0.05100
C549        C  0.29835439  0.09110589  0.75323111     0.00800
C550        C  0.27610739  0.12272380  0.75914726    -0.07700
C551        C  0.28678193  0.16562731  0.76242092     0.62700
H552        H  0.22578634  0.13764356  0.76695387     0.13400
H553        H  0.30316374  0.02882271  0.74462702     0.13400
C554        C  0.24297916  0.33062939  0.74569878     0.62900
F555        F  0.26097950  0.19089361  0.76873207    -0.22200
F556        F  0.30038586  0.17765907  0.73481725    -0.19600
F557        F  0.30919979  0.16960578  0.78672527    -0.19200
F558        F  0.21902934  0.32927681  0.72258784    -0.19300
F559        F  0.23140024  0.31478931  0.77293365    -0.19600
F560        F  0.26847841  0.30688514  0.73577437    -0.22300
C561        C  0.51448392  0.03106136  0.49502019    -0.05100
C562        C  0.54540516  0.01077608  0.99788093     0.00800
C563        C  0.54664736  0.30993112  0.00307496    -0.07800
C564        C  0.51804755  0.28737189  0.00327997    -0.05100
C565        C  0.48684024  0.30453704  0.00064156     0.00800
C566        C  0.48555570  0.00950315  0.49719130    -0.07700
C567        C  0.45331920  0.03177588  0.49703118     0.62700
H568        H  0.51296070  0.06276462  0.49229351     0.13400
H569        H  0.51999400  0.25564599  0.00573692     0.15000
C570        C  0.57928080  0.28904661  0.00729011     0.62900
F571        F  0.45745913  0.07218253  0.49450834    -0.22200
F572        F  0.43741756  0.02538376  0.52471301    -0.19600
F573        F  0.43417250  0.01729269  0.97311071    -0.19200
F574        F  0.59572589  0.30536223  0.53366008    -0.19300
F575        F  0.59737522  0.29270474  0.98054191    -0.19600
F576        F  0.57579759  0.24905175  0.01277942    -0.22300
C577        C  0.04560093  0.14556375  0.01802105    -0.05100
C578        C  0.04432239  0.18173748  0.00249336     0.00800
C579        C  0.01586146  0.19231866  0.98515780    -0.07800
C580        C  0.98946417  0.16618830  0.98448364    -0.05100
C581        C  0.99059640  0.13022902  0.00028750     0.00800
C582        C  0.01905447  0.11959058  0.01756932    -0.07700
C583        C  0.02123419  0.08186800  0.03641529     0.62700
H584        H  0.06725220  0.13845134  0.53184444     0.13400
H585        H  0.96751170  0.17370618  0.97147805     0.13400
C586        C  0.01318844  0.23056368  0.96698738     0.62900
F587        F  0.04910456  0.08062629  0.05502354    -0.22200
F588        F  0.02180962  0.04930684  0.01646410    -0.19600
F589        F  0.99435841  0.07983696  0.55648378    -0.19200
F590        F  0.03992372  0.23458606  0.94810428    -0.19300
F591        F  0.01115470  0.26297948  0.48840969    -0.19600
F592        F  0.98560622  0.23198035  0.44860832    -0.22300
C593        C  0.78298469  0.04059216  0.98377253    -0.05100
C594        C  0.80091318  0.07738747  0.49132148     0.00800
C595        C  0.78450280  0.11326555  0.49864932    -0.07800
C596        C  0.75028527  0.11349425  0.49825874    -0.05100
C597        C  0.73185404  0.07952322  0.49078050     0.00800
C598        C  0.74878152  0.04071968  0.98315562    -0.07700
C599        C  0.73107641  0.00279385  0.97398913     0.62700
H600        H  0.79587629  0.01352396  0.97797813     0.13400
H601        H  0.73757685  0.14063213  0.50418050     0.13400
C602        C  0.80256145  0.15110824  0.50729542     0.62900
F603        F  0.74725541  0.31205717  0.97161540    -0.22200
F604        F  0.70987648  0.00966401  0.94918380    -0.19600
F605        F  0.70988544  0.33014644  0.00642835    -0.19200
F606        F  0.82016107  0.16344072  0.48199621    -0.19300
F607        F  0.82334783  0.14465498  0.53249380    -0.19600
F608        F  0.78157446  0.18154361  0.51559697    -0.22300
C609        C  0.51014713  0.28961499  0.74805478    -0.05100
C610        C  0.54129024  0.30654505  0.74663868     0.00800
C611        C  0.54417355  0.01359081  0.74111353    -0.07800
C612        C  0.51566227  0.03675547  0.74225087    -0.05100
C613        C  0.48463473  0.02018310  0.74600318     0.00800
C614        C  0.48151900  0.31255719  0.74872806    -0.07700
C615        C  0.44893560  0.29175758  0.75063201     0.62700
H616        H  0.50827566  0.25774254  0.74874673     0.13400
H617        H  0.51752329  0.06848624  0.74004297     0.13400
C618        C  0.57661386  0.03391060  0.73642841     0.62900
F619        F  0.45242823  0.25114468  0.75261209    -0.22200
F620        F  0.42990612  0.96410322  0.72660286    -0.19600
F621        F  0.43267910  0.30482492  0.77693631    -0.19200
F622        F  0.59138436  0.01850413  0.71005378    -0.19300
F623        F  0.59500408  0.36174943  0.77081862    -0.19600
F624        F  0.57305132  0.07427440  0.73239629    -0.22300
C625        C  0.60755054  0.19776658  0.86350605    -0.05100
C626        C  0.61242900  0.17132104  0.83824786     0.00800
C627        C  0.61682629  0.13053966  0.84440902    -0.07800
C628        C  0.61708174  0.11811415  0.87564504    -0.05100
C629        C  0.61320258  0.14460951  0.90109780     0.00800
C630        C  0.60759135  0.18532165  0.89484326    -0.07700
C631        C  0.60178861  0.21586232  0.92067873     0.62700
H632        H  0.60386429  0.22874754  0.85843851     0.13400
H633        H  0.62081307  0.08707483  0.88037478     0.13400
C634        C  0.62210608  0.10009126  0.81843987     0.62900
F635        F  0.59618527  0.25328712  0.90898443    -0.22200
F636        F  0.62875574  0.21808612  0.94039145    -0.19600
F637        F  0.57476252  0.20551704  0.93748784    -0.19200
F638        F  0.64871091  0.11042073  0.80101384    -0.19300
F639        F  0.59464248  0.09817038  0.79939296    -0.19600
F640        F  0.62787534  0.06259858  0.82991913    -0.22300
C641        C  0.60547646  0.17853729  0.59458250    -0.05100
C642        C  0.61685867  0.13963447  0.58977813     0.00800
C643        C  0.62501942  0.11638865  0.61640683    -0.07800
C644        C  0.62331744  0.13406934  0.64637274    -0.05100
C645        C  0.61360363  0.17351184  0.65084402     0.00800
C646        C  0.60336041  0.19583516  0.62461861    -0.07700
C647        C  0.58986394  0.23759137  0.62800450     0.62700
H648        H  0.59864745  0.19589122  0.57443152     0.13400
H649        H  0.63049700  0.11736027  0.66676883     0.13400
C650        C  0.63563513  0.07324920  0.61387710     0.62900
F651        F  0.57454593  0.24995299  0.60073847    -0.22200
F652        F  0.61489345  0.26353764  0.63502372    -0.19600
F653        F  0.56717285  0.23925082  0.65152209    -0.19200
F654        F  0.66433126  0.07019301  0.59756635    -0.19300
F655        F  0.61157507  0.05133421  0.59881630    -0.19600
F656        F  0.64111072  0.05667498  0.64290877    -0.22300
C657        C  0.01457462  0.20189748  0.74869016    -0.05100
C658        C  0.98397276  0.18331428  0.74864353     0.00800
C659        C  0.98280104  0.14138330  0.74972199    -0.07800
C660        C  0.01222878  0.12023415  0.75235515    -0.05100
C661        C  0.04279470  0.13886960  0.75306253     0.00800
C662        C  0.04404082  0.18062503  0.75033424    -0.07700
C663        C  0.07588795  0.20307789  0.74844443     0.62700
H664        H  0.01538934  0.23377893  0.74725872     0.13400
H665        H  0.01140677  0.08837129  0.75395269     0.13400
C666        C  0.95107799  0.11846623  0.74815660     0.62900
F667        F  0.07094889  0.24323773  0.74434404    -0.22200
F668        F  0.09344955  0.18898968  0.72327103    -0.19600
F669        F  0.09388322  0.19852392  0.77575233    -0.19200
F670        F  0.93443906  0.12676631  0.72063746    -0.19300
F671        F  0.93217334  0.12868125  0.77349265    -0.19600
F672        F  0.95615429  0.07794473  0.74872275    -0.22300
C673        C  0.89792645  0.28896257  0.86436364    -0.05100
C674        C  0.90890386  0.31356741  0.84050018     0.00800
C675        C  0.92191726  0.01732039  0.84685112    -0.07800
C676        C  0.92223167  0.02934944  0.87854073    -0.05100
C677        C  0.91096017  0.00491248  0.90228045     0.00800
C678        C  0.89837097  0.30082203  0.89601853    -0.07700
C679        C  0.88601370  0.27264311  0.92044678     0.62700
H680        H  0.88864263  0.26000849  0.85801761     0.13400
H681        H  0.93146494  0.05827544  0.88513211     0.13400
C682        C  0.93558664  0.04491886  0.82271541     0.62900
F683        F  0.87417616  0.23790243  0.90715991    -0.22200
F684        F  0.86103055  0.29035509  0.93693764    -0.19600
F685        F  0.91113891  0.26267350  0.94079842    -0.19200
F686        F  0.91110923  0.05642383  0.80217345    -0.19300
F687        F  0.96010939  0.02588883  0.80648824    -0.19600
F688        F  0.94867780  0.07882604  0.83630266    -0.22300
C689        C  0.91135708  0.01749743  0.64771223    -0.05100
C690        C  0.91226449  0.31080496  0.65234730     0.00800
C691        C  0.91653741  0.28613644  0.62549270    -0.07800
C692        C  0.91588917  0.30345606  0.59581011    -0.05100
C693        C  0.91283913  0.01083755  0.59089154     0.00800
C694        C  0.91213852  0.03545060  0.61824702    -0.07700
C695        C  0.91294248  0.08039009  0.61693984     0.62700
H696        H  0.90940668  0.03578149  0.66861389     0.13400
H697        H  0.91773014  0.28465298  0.57519120     0.13400
C698        C  0.92254052  0.24184065  0.62776242     0.62900
F699        F  0.91639028  0.09763528  0.64638661    -0.22200
F700        F  0.88432814  0.09462683  0.60377438    -0.19600
F701        F  0.93910048  0.09211176  0.59947323    -0.19200
F702        F  0.89431797  0.22306792  0.63622543    -0.19300
F703        F  0.94690515  0.23455011  0.64967530    -0.19600
F704        F  0.93233819  0.22543575  0.59955228    -0.22300
C705        C  0.78291137  0.21342790  0.75549214    -0.05100
C706        C  0.79558086  0.24919763  0.74499531     0.00800
C707        C  0.77379616  0.27923662  0.73450336    -0.07800
C708        C  0.74014235  0.27242859  0.73576613    -0.05100
C709        C  0.72745201  0.23667816  0.74629303     0.00800
C710        C  0.74925964  0.20633073  0.75622783    -0.07700
C711        C  0.73757548  0.16666970  0.76791274     0.62700
H712        H  0.79978974  0.19080312  0.76327789     0.13400
H713        H  0.72329478  0.29514771  0.72808602     0.13400
C714        C  0.78552658  0.31803426  0.72124522     0.62900
F715        F  0.76297135  0.14341372  0.77896818    -0.22200
F716        F  0.72239079  0.14589511  0.74373098    -0.19600
F717        F  0.71615088  0.17253372  0.79217454    -0.19200
F718        F  0.80752558  0.31056644  0.69771331    -0.19300
F719        F  0.79944658  0.00510866  0.73996041    -0.19600
F720        F  0.76046869  0.00287589  0.70293533    -0.22300
O721        O  0.92201239  0.65096466  0.20947750    -0.57200
C722        C  0.91428787  0.63209196  0.30901229     0.75500
O723        O  0.85561544  0.56082226  0.24730226    -0.58300
C724        C  0.91431556  0.63049407  0.18531799     0.75400
C725        C  0.95901275  0.54233867  0.24760401     0.77800
Cd726      Cd  0.90657457  0.59919890  0.24692970     1.37500
O727        O  0.91789980  0.65341177  0.28518010    -0.57100
O728        O  0.96337034  0.57937808  0.24813781    -0.56000
C729        C  0.83701543  0.59098145  0.24711558     0.77800
O730        O  0.92958620  0.53127754  0.24650617    -0.58300
O731        O  0.90774771  0.59612406  0.30346795    -0.56800
O732        O  0.90337717  0.59636400  0.19021251    -0.56800
O733        O  0.85095658  0.62415519  0.24697055    -0.55900
O734        O  0.61459650  0.50809791  0.21242311    -0.57200
C735        C  0.61868383  0.52809512  0.31112192     0.75500
O736        O  0.67772625  0.60194410  0.25107857    -0.58300
C737        C  0.61926350  0.52890429  0.18845548     0.75400
C738        C  0.57338988  0.61649375  0.24899367     0.77800
Cd739      Cd  0.62716580  0.56199473  0.25037286     1.37500
O740        O  0.61411631  0.50802226  0.28615991    -0.57100
O741        O  0.57018964  0.57950702  0.24540195    -0.56000
C742        C  0.69663092  0.57206232  0.25100515     0.77800
O743        O  0.60229205  0.62867034  0.25313911    -0.58300
O744        O  0.62636046  0.56391644  0.30763111    -0.56800
O745        O  0.62786894  0.56429258  0.19353424    -0.56800
O746        O  0.68299446  0.53871686  0.25056761    -0.55900
O747        O  0.91937995  0.67400677  0.03649895    -0.57200
C748        C  0.90894514  0.35474453  0.43601734     0.75500
O749        O  0.85553877  0.43403263  0.49490978    -0.58300
C750        C  0.90979323  0.36031358  0.05955328     0.75400
C751        C  0.95979633  0.43814669  0.49941427     0.77800
Cd752      Cd  0.90364280  0.38953494  0.49716060     1.37500
O753        O  0.91140715  0.33393299  0.46036788    -0.57100
O754        O  0.96099864  0.40226392  0.99921293    -0.56000
C755        C  0.83457398  0.40687036  0.99643363     0.77800
O756        O  0.93144179  0.45321018  0.49769024    -0.58300
O757        O  0.90500712  0.39154826  0.44039127    -0.56800
O758        O  0.90175751  0.39559931  0.05387384    -0.56800
O759        O  0.84707802  0.37150982  0.49742211    -0.55900
O760        O  0.61087549  0.48569304  0.03883438    -0.57200
C761        C  0.61642485  0.46860795  0.43811174     0.75500
O762        O  0.67436941  0.39206818  0.49709568    -0.58300
C763        C  0.61843113  0.46409159  0.06194741     0.75400
C764        C  0.57230115  0.37861175  0.49904839     0.77800
Cd765      Cd  0.62496674  0.43370300  0.49886049     1.37500
O766        O  0.61217004  0.48889135  0.46293213    -0.57100
O767        O  0.56777119  0.41587898  0.00078788    -0.56000
C768        C  0.69349169  0.42151922  0.99774868     0.77800
O769        O  0.60149605  0.36682102  0.49677934    -0.58300
O770        O  0.62355474  0.43255987  0.44208280    -0.56800
O771        O  0.62864689  0.42983609  0.05511902    -0.56800
O772        O  0.68139010  0.45491383  0.49883979    -0.55900
O773        O  0.41734348  0.49088964  0.21206459    -0.57200
C774        C  0.41040916  0.46978026  0.30955570     0.75500
O775        O  0.35276088  0.39780838  0.24937062    -0.58300
C776        C  0.41295004  0.47019335  0.18739778     0.75400
C777        C  0.45521686  0.38180301  0.24772591     0.77800
Cd778      Cd  0.40252784  0.43761981  0.24780225     1.37500
O779        O  0.41508343  0.49082131  0.28579084    -0.57100
O780        O  0.45934807  0.41866162  0.25127253    -0.56000
C781        C  0.33309687  0.42692055  0.24959526     0.77800
O782        O  0.42595529  0.37063664  0.24449262    -0.58300
O783        O  0.40317699  0.43401024  0.30399928    -0.56800
O784        O  0.40319032  0.43523901  0.19138526    -0.56800
O785        O  0.34587392  0.46066259  0.24766649    -0.55900
O786        O  0.11255251  0.66586366  0.21946835    -0.57200
C787        C  0.11359298  0.35096293  0.32214518     0.75500
O788        O  0.17437151  0.42559140  0.26009218    -0.58300
C789        C  0.12044657  0.35009413  0.19974712     0.75400
C790        C  0.07301889  0.43966544  0.25626346     0.77800
Cd791      Cd  0.12556806  0.38382126  0.26164770     1.37500
O792        O  0.10940593  0.66427553  0.29373848    -0.57100
O793        O  0.06907116  0.40261824  0.25452689    -0.56000
C794        C  0.19455231  0.39714595  0.26197559     0.77800
O795        O  0.10197368  0.45110860  0.26116342    -0.58300
O796        O  0.12217629  0.38650564  0.31867128    -0.56800
O797        O  0.12989239  0.38486264  0.20562478    -0.56800
O798        O  0.18244292  0.36334767  0.26582640    -0.55900
O799        O  0.41688420  0.50488654  0.03527990    -0.57200
C800        C  0.40762908  0.52548769  0.43839923     0.75500
O801        O  0.35131620  0.59888742  0.50072863    -0.58300
C802        C  0.41481695  0.52554852  0.06015417     0.75400
C803        C  0.45557242  0.61262988  0.49731572     0.77800
Cd804      Cd  0.40227826  0.55915752  0.49974847     1.37500
O805        O  0.41461975  0.50541864  0.46241108    -0.57100
O806        O  0.45925890  0.57593271  0.99512900    -0.56000
C807        C  0.33315346  0.56927005  0.00168627     0.77800
O808        O  0.42711318  0.62581849  0.00134832    -0.58300
O809        O  0.39829926  0.56075814  0.44326394    -0.56800
O810        O  0.40786197  0.56173821  0.05661457    -0.56800
O811        O  0.34680788  0.53572320  0.50225911    -0.55900
O812        O  0.10922855  0.64854408  0.04568501    -0.57200
C813        C  0.11130955  0.62839025  0.44601105     0.75500
O814        O  0.17403201  0.55854928  0.50564102    -0.58300
C815        C  0.11388408  0.62631526  0.06905329     0.75400
C816        C  0.07037453  0.54232317  0.50402636     0.77800
Cd817      Cd  0.12269351  0.59657555  0.50693528     1.37500
O818        O  0.10644931  0.64903077  0.47053769    -0.57100
O819        O  0.06642867  0.58030433  0.00523951    -0.56000
C820        C  0.19255895  0.58912998  0.00496427     0.77800
O821        O  0.09925361  0.53022968  0.00444769    -0.58300
O822        O  0.12124851  0.59336944  0.45033126    -0.56800
O823        O  0.12274203  0.59125369  0.06291454    -0.56800
O824        O  0.17796551  0.62196153  0.50675986    -0.55900
C825        C  0.24242152  0.55018320  0.51585822    -0.05100
C826        C  0.22864401  0.58544263  0.00388397     0.00800
C827        C  0.24906703  0.61485039  0.99134399    -0.07800
C828        C  0.28292974  0.60822116  0.99132287    -0.05100
C829        C  0.29705664  0.57328748  0.00278121     0.00800
C830        C  0.27620426  0.54336642  0.51557789    -0.07700
C831        C  0.28942845  0.50473127  0.52859204     0.62700
H832        H  0.22655018  0.52796709  0.52512594     0.13400
H833        H  0.29877074  0.63040226  0.98195473     0.13400
C834        C  0.23552799  0.65269263  0.97726615     0.62900
F835        F  0.26533753  0.48234624  0.54184583    -0.22200
F836        F  0.31319139  0.51254775  0.05071359    -0.19600
F837        F  0.30291313  0.48219998  0.50479733    -0.19200
F838        F  0.22214137  0.67628711  0.00046592    -0.19300
F839        F  0.21509673  0.30582894  0.95363075    -0.19600
F840        F  0.26294239  0.33585861  0.96092516    -0.22300
C841        C  0.10861558  0.61578591  0.38883486    -0.05100
C842        C  0.10671288  0.64354879  0.41366263     0.00800
C843        C  0.10469832  0.35087359  0.41034928    -0.07800
C844        C  0.10517025  0.36243671  0.37886640    -0.05100
C845        C  0.10847005  0.33495140  0.35400447     0.00800
C846        C  0.10923365  0.62712434  0.35735130    -0.07700
C847        C  0.11218022  0.59538889  0.33195258     0.62700
H848        H  0.11052627  0.58472301  0.39432125     0.13400
H849        H  0.10379625  0.39356865  0.37346820     0.13400
C850        C  0.10124135  0.38236603  0.43587251     0.62900
F851        F  0.11351162  0.55768972  0.34410063    -0.22200
F852        F  0.14031277  0.60097346  0.31533850    -0.19600
F853        F  0.08541654  0.59713643  0.31197330    -0.19200
F854        F  0.12899739  0.38318731  0.45460301    -0.19300
F855        F  0.07046332  0.70720833  0.44903980    -0.19600
F856        F  0.09684408  0.41976389  0.42374447    -0.22300
C857        C  0.10847214  0.63309622  0.15815634    -0.05100
C858        C  0.11791443  0.33454453  0.16710085     0.00800
C859        C  0.11324593  0.35946144  0.14090869    -0.07800
C860        C  0.11168535  0.68226704  0.10679446    -0.05100
C861        C  0.11054497  0.64120996  0.10177894     0.00800
C862        C  0.10748742  0.61608955  0.12792814    -0.07700
C863        C  0.10330875  0.57154569  0.12448029     0.62700
H864        H  0.10740513  0.61408034  0.17822679     0.13400
H865        H  0.11327899  0.70110269  0.08666221     0.13400
C866        C  0.10813513  0.40395041  0.14423300     0.62900
F867        F  0.09542550  0.55434472  0.15250785    -0.22200
F868        F  0.13198910  0.55438271  0.11445687    -0.19600
F869        F  0.07846011  0.56314047  0.10321973    -0.19200
F870        F  0.13698835  0.42171927  0.15358676    -0.19300
F871        F  0.08433291  0.41212931  0.16593179    -0.19600
F872        F  0.09820962  0.42073827  0.11630730    -0.22300
C873        C  0.40727710  0.45781217  0.36626575    -0.05100
C874        C  0.41222678  0.48520685  0.34236750     0.00800
C875        C  0.41720538  0.52562050  0.35063512    -0.07800
C876        C  0.41599550  0.53692665  0.38235921    -0.05100
C877        C  0.41032076  0.50961934  0.40602367     0.00800
C878        C  0.40609370  0.46918053  0.39792879    -0.07700
C879        C  0.39977110  0.43804479  0.42224474     0.62700
H880        H  0.40397412  0.42696709  0.35997861     0.13400
H881        H  0.41952620  0.56763699  0.38902823     0.13400
C882        C  0.42404191  0.55693795  0.32659716     0.62900
F883        F  0.39314115  0.40136990  0.40883643    -0.22200
F884        F  0.37334626  0.44901102  0.44008136    -0.19600
F885        F  0.42702003  0.43404680  0.44123732    -0.19200
F886        F  0.39816027  0.55984353  0.30564529    -0.19300
F887        F  0.45213533  0.54692863  0.31094826    -0.19600
F888        F  0.42860010  0.59396939  0.34018456    -0.22300
C889        C  0.41466628  0.45747093  0.13038509    -0.05100
C890        C  0.41818049  0.48501964  0.15522415     0.00800
C891        C  0.42563285  0.52486662  0.14828439    -0.07800
C892        C  0.42560031  0.53615681  0.11675233    -0.05100
C893        C  0.41934895  0.50914515  0.09204144     0.00800
C894        C  0.41547868  0.46855141  0.09890593    -0.07700
C895        C  0.41152098  0.43687452  0.07354597     0.62700
H896        H  0.41051007  0.42678821  0.13578495     0.13400
H897        H  0.42978973  0.56679306  0.11115519     0.13400
C898        C  0.43311752  0.55574615  0.17356581     0.62900
F899        F  0.40875552  0.39939399  0.08577769    -0.22200
F900        F  0.43851053  0.43667261  0.05470554    -0.19600
F901        F  0.38377457  0.44422670  0.05578704    -0.19200
F902        F  0.45881567  0.54298483  0.19220258    -0.19300
F903        F  0.40594701  0.56220074  0.19161352    -0.19600
F904        F  0.44190945  0.59162081  0.16113759    -0.22300
C905        C  0.24177922  0.44229953  0.26316268    -0.05100
C906        C  0.23024276  0.40348766  0.25924983     0.00800
C907        C  0.25257729  0.37285959  0.25112493    -0.07800
C908        C  0.28561436  0.38235729  0.24814628    -0.05100
C909        C  0.29726489  0.42110010  0.25224539     0.00800
C910        C  0.27475219  0.45197873  0.25951266    -0.07700
C911        C  0.28482264  0.49503755  0.26341038     0.62700
H912        H  0.22448162  0.46538772  0.26901640     0.13400
H913        H  0.30280749  0.35914297  0.24233974     0.13400
C914        C  0.24118111  0.66373200  0.24046524     0.62900
F915        F  0.25887428  0.51941085  0.27113824    -0.22200
F916        F  0.29719181  0.50838760  0.23564643    -0.19600
F917        F  0.30802317  0.49874980  0.28705476    -0.19200
F918        F  0.21770385  0.66352011  0.21690277    -0.19300
F919        F  0.22890142  0.64716161  0.26712114    -0.19600
F920        F  0.26663765  0.63993607  0.23050333    -0.22300
C921        C  0.51262623  0.36863756  0.99697265    -0.05100
C922        C  0.54390744  0.35147618  0.49982016     0.00800
C923        C  0.54375297  0.64280799  0.50538567    -0.07800
C924        C  0.51436376  0.62191523  0.50648315    -0.05100
C925        C  0.48459000  0.63835998  0.49635117     0.00800
C926        C  0.48402933  0.34619151  0.99800213    -0.07700
C927        C  0.45136242  0.36739331  0.99627547     0.62700
H928        H  0.51067736  0.40033386  0.99434884     0.13400
H929        H  0.51441676  0.59220042  0.51554971     0.15000
C930        C  0.57473271  0.62351652  0.51785083     0.62900
F931        F  0.45484267  0.40787702  0.99378122    -0.22200
F932        F  0.43420177  0.36070789  0.02318278    -0.19600
F933        F  0.43372796  0.35405403  0.47087813    -0.19200
F934        F  0.59002544  0.64552045  0.03888768    -0.19300
F935        F  0.59623411  0.61742627  0.49372317    -0.19600
F936        F  0.56883923  0.58717283  0.53105197    -0.22300
C937        C  0.04443135  0.47921294  0.51685846    -0.05100
C938        C  0.04228094  0.51548457  0.50153199     0.00800
C939        C  0.01353160  0.52539367  0.48446733    -0.07800
C940        C  0.98739188  0.49900226  0.48448716    -0.05100
C941        C  0.98917085  0.46311447  0.50036746     0.00800
C942        C  0.01828297  0.45262648  0.51671886    -0.07700
C943        C  0.02172099  0.41434261  0.53470654     0.62700
H944        H  0.06655223  0.47269049  0.02836668     0.13400
H945        H  0.96509926  0.50633263  0.47195907     0.13400
C946        C  0.01022740  0.56325084  0.46588196     0.62900
F947        F  0.05058899  0.41274296  0.55182202    -0.22200
F948        F  0.02140376  0.38243627  0.51407975    -0.19600
F949        F  0.99641062  0.41142313  0.05457705    -0.19200
F950        F  0.03725986  0.56821499  0.44754157    -0.19300
F951        F  0.00690888  0.59700175  0.98751807    -0.19600
F952        F  0.98171710  0.56540520  0.94775449    -0.22300
C953        C  0.78012233  0.37858220  0.48810915    -0.05100
C954        C  0.79860473  0.41268470  0.99594986     0.00800
C955        C  0.78285796  0.44908588  0.00319015    -0.07800
C956        C  0.74863975  0.45006211  0.00369906    -0.05100
C957        C  0.72954129  0.41643779  0.99697917     0.00800
C958        C  0.74595384  0.37957406  0.48840764    -0.07700
C959        C  0.72740328  0.34204458  0.47981899     0.62700
H960        H  0.79233115  0.35113246  0.48208879     0.13400
H961        H  0.73643931  0.47759614  0.00947424     0.13400
C962        C  0.80159006  0.48684927  0.01049355     0.62900
F963        F  0.75380975  0.63854354  0.46952037    -0.22200
F964        F  0.70594476  0.34920541  0.45527222    -0.19600
F965        F  0.71351057  0.65822109  0.50059876    -0.19200
F966        F  0.81859411  0.49787678  0.98443524    -0.19300
F967        F  0.82298178  0.48095015  0.03531534    -0.19600
F968        F  0.78121814  0.51798354  0.01861493    -0.22300
C969        C  0.51369719  0.62489545  0.25168229    -0.05100
C970        C  0.54424646  0.64296439  0.24883772     0.00800
C971        C  0.54345906  0.34851142  0.24480548    -0.07800
C972        C  0.51476193  0.37132171  0.24555643    -0.05100
C973        C  0.48367441  0.35425907  0.24705359     0.00800
C974        C  0.48439482  0.64656613  0.25147661    -0.07700
C975        C  0.45245434  0.62444439  0.25368806     0.62700
H976        H  0.51284151  0.59311560  0.25406043     0.13400
H977        H  0.51654331  0.40320117  0.24490935     0.13400
C978        C  0.57599208  0.36952981  0.24320541     0.62900
F979        F  0.45715777  0.58406854  0.25617670    -0.22200
F980        F  0.42963226  0.29876392  0.22427470    -0.19600
F981        F  0.43578270  0.63743987  0.27976159    -0.19200
F982        F  0.59251644  0.35672177  0.21698955    -0.19300
F983        F  0.59752942  0.70296324  0.26592592    -0.19600
F984        F  0.57236197  0.41017014  0.24130276    -0.22300
C985        C  0.60914192  0.53780548  0.36785271    -0.05100
C986        C  0.61563397  0.51135194  0.34296810     0.00800
C987        C  0.62092975  0.47081389  0.34949769    -0.07800
C988        C  0.61978291  0.45854275  0.38071997    -0.05100
C989        C  0.61424385  0.48508715  0.40584568     0.00800
C990        C  0.60841712  0.52563959  0.39922256    -0.07700
C991        C  0.60190523  0.55636555  0.42474686     0.62700
H992        H  0.60498370  0.56861906  0.36249135     0.13400
H993        H  0.62391051  0.42764683  0.38572653     0.13400
C994        C  0.62892284  0.44056892  0.32402711     0.62900
F995        F  0.59654615  0.59367840  0.41275425    -0.22200
F996        F  0.62843380  0.55881428  0.44499905    -0.19600
F997        F  0.57450339  0.54609179  0.44102488    -0.19200
F998        F  0.65587434  0.45263251  0.30782695    -0.19300
F999        F  0.60262328  0.43652010  0.30368852    -0.19600
F1000       F  0.63589824  0.40363742  0.33603968    -0.22300
C1001       C  0.60722232  0.51834736  0.10007383    -0.05100
C1002       C  0.61606245  0.47855360  0.09503420     0.00800
C1003       C  0.62254609  0.45435990  0.12150546    -0.07800
C1004       C  0.62269204  0.47206612  0.15152661    -0.05100
C1005       C  0.61584378  0.51235337  0.15620211     0.00800
C1006       C  0.60635674  0.53555807  0.13020125    -0.07700
C1007       C  0.59469560  0.57808664  0.13392918     0.62700
H1008       H  0.60141954  0.53642433  0.08005059     0.13400
H1009       H  0.62903432  0.45458580  0.17175022     0.13400
C1010       C  0.62918842  0.41010618  0.11874462     0.62900
F1011       F  0.57937388  0.59143838  0.10697478    -0.22200
F1012       F  0.62086977  0.60247439  0.14053853    -0.19600
F1013       F  0.57252078  0.58102811  0.15785312    -0.19200
F1014       F  0.65822078  0.40336354  0.10362917    -0.19300
F1015       F  0.60397021  0.39188767  0.10235471    -0.19600
F1016       F  0.63160690  0.39247052  0.14769928    -0.22300
C1017       C  0.01867032  0.53145214  0.24794134    -0.05100
C1018       C  0.98743218  0.51454642  0.24849153     0.00800
C1019       C  0.98481012  0.47273184  0.25011620    -0.07800
C1020       C  0.01349530  0.45008024  0.25276905    -0.05100
C1021       C  0.04466362  0.46710217  0.25301006     0.00800
C1022       C  0.04736422  0.50865347  0.24961517    -0.07700
C1023       C  0.07998756  0.52925861  0.24696836     0.62700
H1024       H  0.02061034  0.56321142  0.24609689     0.13400
H1025       H  0.01162557  0.41834317  0.25486910     0.13400
C1026       C  0.95230010  0.45149362  0.24914364     0.62900
F1027       F  0.07644422  0.56932114  0.24145937    -0.22200
F1028       F  0.09705547  0.51287017  0.22230399    -0.19600
F1029       F  0.09782558  0.52532908  0.27444437    -0.19200
F1030       F  0.93561295  0.46028003  0.22175063    -0.19300
F1031       F  0.93410451  0.46302379  0.27463812    -0.19600
F1032       F  0.95596870  0.41077160  0.24998962    -0.22300
C1033       C  0.90461708  0.62288465  0.36540475    -0.05100
C1034       C  0.91650235  0.64742937  0.34189524     0.00800
C1035       C  0.92219999  0.35004972  0.34858899    -0.07800
C1036       C  0.92201723  0.36215996  0.38022822    -0.05100
C1037       C  0.91032221  0.33780706  0.40382899     0.00800
C1038       C  0.90440515  0.63456546  0.39708879    -0.07700
C1039       C  0.89060393  0.60677814  0.42106783     0.62700
H1040       H  0.89491229  0.59424741  0.35873261     0.13400
H1041       H  0.93108008  0.39115510  0.38685441     0.13400
C1042       C  0.93648027  0.37741851  0.32462009     0.62900
F1043       F  0.87851861  0.57240280  0.40737331    -0.22200
F1044       F  0.86541468  0.62524754  0.43674847    -0.19600
F1045       F  0.91476994  0.59608015  0.44222140    -0.19200
F1046       F  0.91220782  0.39021034  0.30434812    -0.19300
F1047       F  0.96036731  0.35765038  0.30804246    -0.19600
F1048       F  0.95060273  0.41054338  0.33845478    -0.22300
C1049       C  0.91074490  0.35228728  0.14890947    -0.05100
C1050       C  0.91670683  0.64620995  0.15312963     0.00800
C1051       C  0.92013717  0.62154718  0.12613210    -0.07800
C1052       C  0.91872200  0.63891299  0.09645892    -0.05100
C1053       C  0.91245462  0.34522707  0.09212231     0.00800
C1054       C  0.91121969  0.37003784  0.11936431    -0.07700
C1055       C  0.91094260  0.41498695  0.11787631     0.62700
H1056       H  0.90826848  0.37061832  0.16972783     0.13400
H1057       H  0.92003440  0.62018941  0.07574738     0.13400
C1058       C  0.92586145  0.57717762  0.12822699     0.62900
F1059       F  0.91354682  0.43254290  0.14727732    -0.22200
F1060       F  0.88216218  0.42808743  0.10428521    -0.19600
F1061       F  0.93706892  0.42754838  0.10072030    -0.19200
F1062       F  0.89777526  0.55875517  0.13750492    -0.19300
F1063       F  0.95082109  0.56956831  0.14944147    -0.19600
F1064       F  0.93461458  0.56065257  0.09973082    -0.22300
C1065       C  0.78813515  0.55255221  0.25980910    -0.05100
C1066       C  0.80094818  0.58739360  0.24772420     0.00800
C1067       C  0.77922101  0.61711749  0.23657263    -0.07800
C1068       C  0.74550160  0.61090690  0.23866215    -0.05100
C1069       C  0.73269333  0.57598702  0.25065410     0.00800
C1070       C  0.75444453  0.54603556  0.26140535    -0.07700
C1071       C  0.74264621  0.50737952  0.27484569     0.62700
H1072       H  0.80494156  0.53015388  0.26812993     0.13400
H1073       H  0.72869231  0.63335375  0.23042040     0.13400
C1074       C  0.79108373  0.65489540  0.22177054     0.62900
F1075       F  0.76798688  0.48483583  0.28691084    -0.22200
F1076       F  0.72738058  0.48504299  0.25160905    -0.19600
F1077       F  0.72124868  0.51506583  0.29884167    -0.19200
F1078       F  0.81269790  0.64580266  0.19823491    -0.19300
F1079       F  0.80012870  0.33995202  0.24348708    -0.19600
F1080       F  0.76065265  0.33895850  0.20694409    -0.22300
O1081       O  0.92288257  0.65073131  0.70974585    -0.57200
C1082       C  0.91437880  0.63194478  0.80918344     0.75500
O1083       O  0.85619900  0.56064883  0.74778771    -0.58300
C1084       C  0.91536460  0.63023320  0.68555062     0.75400
C1085       C  0.95965439  0.54227452  0.74782246     0.77800
Cd1086     Cd  0.90717572  0.59900266  0.74711048     1.37500
O1087       O  0.91804618  0.65329443  0.78537520    -0.57100
O1088       O  0.96394906  0.57932137  0.74879468    -0.56000
C1089       C  0.83763164  0.59083383  0.74730889     0.77800
O1090       O  0.93025545  0.53113457  0.74636252    -0.58300
O1091       O  0.90814434  0.59589803  0.80363140    -0.56800
O1092       O  0.90431292  0.59613984  0.69038626    -0.56800
O1093       O  0.85161530  0.62395560  0.74674144    -0.55900
O1094       O  0.61548883  0.50774132  0.71249642    -0.57200
C1095       C  0.61898361  0.52834560  0.81112812     0.75500
O1096       O  0.67829167  0.60188282  0.75097383    -0.58300
C1097       C  0.61994979  0.52851997  0.68847566     0.75400
C1098       C  0.57398883  0.61653267  0.74906346     0.77800
Cd1099     Cd  0.62774550  0.56192597  0.75034524     1.37500
O1100       O  0.61420607  0.50828654  0.78619426    -0.57100
O1101       O  0.57072284  0.57953419  0.74562410    -0.56000
C1102       C  0.69722410  0.57203145  0.75125877     0.77800
O1103       O  0.60294239  0.62863392  0.75295757    -0.58300
O1104       O  0.62708491  0.56401526  0.80758925    -0.56800
O1105       O  0.62833718  0.56400073  0.69348442    -0.56800
O1106       O  0.68361220  0.53867193  0.75103675    -0.55900
O1107       O  0.92162263  0.67348205  0.53673184    -0.57200
C1108       C  0.90834464  0.35612347  0.93621873     0.75500
O1109       O  0.85487038  0.43492711  0.99547324    -0.58300
C1110       C  0.90980759  0.35931668  0.55930245     0.75400
C1111       C  0.95915822  0.43956282  0.99935063     0.77800
Cd1112     Cd  0.90310921  0.39073975  0.99744518     1.37500
O1113       O  0.91116286  0.33533523  0.96055469    -0.57100
O1114       O  0.96161167  0.40085003  0.49960792    -0.56000
C1115       C  0.83517789  0.40605168  0.49597574     0.77800
O1116       O  0.93077369  0.45460573  0.99805638    -0.58300
O1117       O  0.90404695  0.39286546  0.94062433    -0.56800
O1118       O  0.90163737  0.39450974  0.55345830    -0.56800
O1119       O  0.84656441  0.37236126  0.99772545    -0.55900
O1120       O  0.61163283  0.48507834  0.53887586    -0.57200
C1121       C  0.61595257  0.46919739  0.93813787     0.75500
O1122       O  0.67378867  0.39283388  0.99769523    -0.58300
C1123       C  0.61906143  0.46344973  0.56200858     0.75400
C1124       C  0.57206980  0.37883987  0.99876773     0.77800
Cd1125     Cd  0.62439114  0.43434448  0.99885692     1.37500
O1126       O  0.61112209  0.48935197  0.96291721    -0.57100
O1127       O  0.56818330  0.41571118  0.50058798    -0.56000
C1128       C  0.69410022  0.42074047  0.49747267     0.77800
O1129       O  0.60129661  0.36731073  0.99618853    -0.58300
O1130       O  0.62357403  0.43330401  0.94214451    -0.56800
O1131       O  0.62917031  0.42913577  0.55519995    -0.56800
O1132       O  0.68076401  0.45570647  0.99866514    -0.55900
O1133       O  0.41798960  0.49116696  0.71193182    -0.57200
C1134       C  0.41143608  0.47041453  0.80964880     0.75500
O1135       O  0.35351735  0.39838810  0.74948907    -0.58300
C1136       C  0.41343849  0.47041189  0.68732047     0.75400
C1137       C  0.45582572  0.38204520  0.74819785     0.77800
Cd1138     Cd  0.40329684  0.43811587  0.74792510     1.37500
O1139       O  0.41653340  0.49128194  0.78587011    -0.57100
O1140       O  0.46006484  0.41893671  0.75129754    -0.56000
C1141       C  0.33384482  0.42748891  0.74980354     0.77800
O1142       O  0.42652551  0.37096834  0.74516169    -0.58300
O1143       O  0.40360458  0.43483316  0.80411743    -0.56800
O1144       O  0.40373977  0.43545871  0.69144129    -0.56800
O1145       O  0.34661751  0.46124844  0.74794904    -0.55900
O1146       O  0.11267959  0.66677731  0.71929661    -0.57200
C1147       C  0.11419837  0.35127287  0.82219754     0.75500
O1148       O  0.17514350  0.42592311  0.76034859    -0.58300
C1149       C  0.12128415  0.35043421  0.69989023     0.75400
C1150       C  0.07383679  0.43992893  0.75621684     0.77800
Cd1151     Cd  0.12638226  0.38413354  0.76175864     1.37500
O1152       O  0.10924172  0.66520834  0.79348458    -0.57100
O1153       O  0.06993239  0.40287502  0.75451614    -0.56000
C1154       C  0.19533560  0.39749578  0.76228592     0.77800
O1155       O  0.10277451  0.45143381  0.76112062    -0.58300
O1156       O  0.12252591  0.38690713  0.81871167    -0.56800
O1157       O  0.13114008  0.38502365  0.70579926    -0.56800
O1158       O  0.18323596  0.36368908  0.76612267    -0.55900
O1159       O  0.41683015  0.50506548  0.53514280    -0.57200
C1160       C  0.40873389  0.52580437  0.93855516     0.75500
O1161       O  0.35172354  0.59910594  0.00060544    -0.58300
C1162       C  0.41477794  0.52575020  0.56000978     0.75400
C1163       C  0.45590669  0.61303930  0.99763747     0.77800
Cd1164     Cd  0.40271170  0.55925802  0.99987079     1.37500
O1165       O  0.41562443  0.50571660  0.96258288    -0.57100
O1166       O  0.45880972  0.57549098  0.49504431    -0.56000
C1167       C  0.33279708  0.56904524  0.50224106     0.77800
O1168       O  0.42682463  0.62568551  0.50083300    -0.58300
O1169       O  0.39921279  0.56099910  0.94341794    -0.56800
O1170       O  0.40775502  0.56192493  0.55648143    -0.56800
O1171       O  0.34713064  0.53592406  0.00147837    -0.55900
O1172       O  0.10904997  0.64852004  0.54563806    -0.57200
C1173       C  0.11128255  0.62904400  0.94572978     0.75500
O1174       O  0.17430787  0.55893288  0.00511663    -0.58300
C1175       C  0.11371137  0.62652800  0.56914110     0.75400
C1176       C  0.07017373  0.54324942  0.00361146     0.77800
Cd1177     Cd  0.12291519  0.59701770  0.00658510     1.37500
O1178       O  0.10725124  0.64989244  0.97030489    -0.57100
O1179       O  0.06634278  0.57933767  0.50561328    -0.56000
C1180       C  0.19224604  0.58877707  0.50555792     0.77800
O1181       O  0.09952618  0.52959099  0.50496695    -0.58300
O1182       O  0.12056492  0.59374485  0.94997500    -0.56800
O1183       O  0.12254098  0.59138934  0.56325425    -0.56800
O1184       O  0.17830070  0.62232990  0.00617896    -0.55900
C1185       C  0.24276016  0.55056499  0.01533573    -0.05100
C1186       C  0.22831580  0.58513672  0.50454131     0.00800
C1187       C  0.24873706  0.61469098  0.49222141    -0.07800
C1188       C  0.28258180  0.60803617  0.49213317    -0.05100
C1189       C  0.29671294  0.57304083  0.50346842     0.00800
C1190       C  0.27653599  0.54367606  0.01495519    -0.07700
C1191       C  0.28974995  0.50496983  0.02784041     0.62700
H1192       H  0.22689594  0.52843058  0.02473024     0.13400
H1193       H  0.29841157  0.63028984  0.48285504     0.13400
C1194       C  0.23523467  0.65279612  0.47854998     0.62900
F1195       F  0.26568922  0.48262639  0.04118008    -0.22200
F1196       F  0.31271226  0.51247375  0.55157987    -0.19600
F1197       F  0.30303968  0.48248272  0.00391441    -0.19200
F1198       F  0.22191289  0.67601286  0.50201941    -0.19300
F1199       F  0.21471464  0.30617847  0.45330435    -0.19600
F1200       F  0.26245678  0.33640713  0.46074271    -0.22300
C1201       C  0.10827469  0.61654246  0.88852200    -0.05100
C1202       C  0.10652398  0.64426358  0.91339779     0.00800
C1203       C  0.10593347  0.35117985  0.91046588    -0.07800
C1204       C  0.10642220  0.36280832  0.87900714    -0.05100
C1205       C  0.10892523  0.33530133  0.85405760     0.00800
C1206       C  0.10877095  0.62793735  0.85704265    -0.07700
C1207       C  0.11144465  0.59622795  0.83158950     0.62700
H1208       H  0.11018811  0.58546583  0.89395625     0.13400
H1209       H  0.10572095  0.39399142  0.87370771     0.13400
C1210       C  0.10338482  0.38268992  0.93608279     0.62900
F1211       F  0.11243323  0.55848589  0.84367552    -0.22200
F1212       F  0.13963107  0.60149344  0.81499068    -0.19600
F1213       F  0.08470288  0.59835470  0.81160574    -0.19200
F1214       F  0.13124985  0.38243952  0.95466515    -0.19300
F1215       F  0.07019588  0.70737493  0.94901159    -0.19600
F1216       F  0.09983070  0.42026747  0.92407028    -0.22300
C1217       C  0.10768021  0.63406926  0.65810397    -0.05100
C1218       C  0.11862869  0.33496584  0.66724278     0.00800
C1219       C  0.11420123  0.35999672  0.64108606    -0.07800
C1220       C  0.11238109  0.68277885  0.60659974    -0.05100
C1221       C  0.11042362  0.64175451  0.60174695     0.00800
C1222       C  0.10662347  0.61691096  0.62793831    -0.07700
C1223       C  0.10155055  0.57250217  0.62457726     0.62700
H1224       H  0.10601990  0.61520873  0.67821774     0.13400
H1225       H  0.11455938  0.70138964  0.58639663     0.13400
C1226       C  0.10950046  0.40454394  0.64446303     0.62900
F1227       F  0.09282782  0.55575495  0.65253635    -0.22200
F1228       F  0.13003218  0.55439311  0.61504366    -0.19600
F1229       F  0.07688440  0.56472853  0.60297036    -0.19200
F1230       F  0.13851786  0.42190946  0.65382201    -0.19300
F1231       F  0.08577922  0.41300580  0.66618191    -0.19600
F1232       F  0.09971661  0.42150494  0.61656091    -0.22300
C1233       C  0.40939476  0.45820173  0.86637489    -0.05100
C1234       C  0.41348717  0.48579726  0.84246024     0.00800
C1235       C  0.41767605  0.52634013  0.85072184    -0.07800
C1236       C  0.41662501  0.53753253  0.88247561    -0.05100
C1237       C  0.41164823  0.51003113  0.90616258     0.00800
C1238       C  0.40817316  0.46948442  0.89805266    -0.07700
C1239       C  0.40261492  0.43812446  0.92236543     0.62700
H1240       H  0.40674125  0.42726397  0.86007698     0.13400
H1241       H  0.41961984  0.56833002  0.88913397     0.13400
C1242       C  0.42331099  0.55795740  0.82662426     0.62900
F1243       F  0.39673386  0.40125618  0.90897007    -0.22200
F1244       F  0.37602846  0.44821287  0.94028684    -0.19600
F1245       F  0.43002031  0.43500262  0.94124974    -0.19200
F1246       F  0.39721782  0.55958225  0.80582034    -0.19300
F1247       F  0.45158559  0.54931021  0.81081469    -0.19600
F1248       F  0.42672900  0.59519984  0.84015966    -0.22300
C1249       C  0.41426588  0.45775016  0.63024585    -0.05100
C1250       C  0.41840184  0.48519798  0.65507605     0.00800
C1251       C  0.42619213  0.52493962  0.64807767    -0.07800
C1252       C  0.42608617  0.53623142  0.61653965    -0.05100
C1253       C  0.41935212  0.50933293  0.59187608     0.00800
C1254       C  0.41492327  0.46884673  0.59876343    -0.07700
C1255       C  0.41022909  0.43732957  0.57339336     0.62700
H1256       H  0.40975756  0.42714895  0.63565693     0.13400
H1257       H  0.43060039  0.56678225  0.61089577     0.13400
C1258       C  0.43410827  0.55571631  0.67331512     0.62900
F1259       F  0.40670681  0.39994277  0.58559379    -0.22200
F1260       F  0.43716654  0.43634799  0.55448642    -0.19600
F1261       F  0.38259745  0.44554613  0.55570798    -0.19200
F1262       F  0.45988139  0.54267188  0.69172904    -0.19300
F1263       F  0.40714198  0.56242376  0.69159083    -0.19600
F1264       F  0.44301455  0.59152005  0.66084108    -0.22300
C1265       C  0.24248471  0.44275118  0.76326787    -0.05100
C1266       C  0.23102457  0.40387446  0.75959984     0.00800
C1267       C  0.25342444  0.37322534  0.75169681    -0.07800
C1268       C  0.28644208  0.38278935  0.74866486    -0.05100
C1269       C  0.29801590  0.42160995  0.75249388     0.00800
C1270       C  0.27543212  0.45249398  0.75954134    -0.07700
C1271       C  0.28538062  0.49563393  0.76307509     0.62700
H1272       H  0.22513912  0.46585033  0.76895921     0.13400
H1273       H  0.30367887  0.35955958  0.74302252     0.13400
C1274       C  0.24100459  0.66422354  0.74023629     0.62900
F1275       F  0.25935583  0.52001205  0.77056106    -0.22200
F1276       F  0.29774829  0.50863289  0.73520302    -0.19600
F1277       F  0.30853679  0.49977010  0.78671614    -0.19200
F1278       F  0.21762026  0.66401685  0.71658779    -0.19300
F1279       F  0.22856132  0.64783261  0.76689067    -0.19600
F1280       F  0.26642474  0.64026020  0.73043442    -0.22300
C1281       C  0.51277388  0.36882379  0.49731738    -0.05100
C1282       C  0.54383053  0.35148131  0.99934551     0.00800
C1283       C  0.54424180  0.64343801  0.00423773    -0.07800
C1284       C  0.51501484  0.62215157  0.00512398    -0.05100
C1285       C  0.48482811  0.63903194  0.99669968     0.00800
C1286       C  0.48407431  0.34657501  0.49845004    -0.07700
C1287       C  0.45147674  0.36790921  0.49650690     0.62700
H1288       H  0.51095929  0.40050312  0.49451598     0.13400
H1289       H  0.51553164  0.59179294  0.01278609     0.15000
C1290       C  0.57564652  0.62348675  0.01494655     0.62900
F1291       F  0.45508012  0.40830874  0.49345916    -0.22200
F1292       F  0.43435732  0.36184224  0.52353937    -0.19600
F1293       F  0.43372425  0.35399060  0.97042813    -0.19200
F1294       F  0.58887092  0.64751738  0.54071364    -0.19300
F1295       F  0.59668887  0.62000568  0.99017515    -0.19600
F1296       F  0.57038278  0.58585244  0.02606618    -0.22300
C1297       C  0.04409500  0.48010498  0.01615890    -0.05100
C1298       C  0.04185857  0.51667078  0.00126767     0.00800
C1299       C  0.01282964  0.52707161  0.98481136    -0.07800
C1300       C  0.98661698  0.50076099  0.98488157    -0.05100
C1301       C  0.98855108  0.46452595  0.00025874     0.00800
C1302       C  0.01786397  0.45364309  0.01609942    -0.07700
C1303       C  0.02145456  0.41502599  0.03362623     0.62700
H1304       H  0.06672525  0.47216449  0.52948080     0.13400
H1305       H  0.96415204  0.50840764  0.97277242     0.13400
C1306       C  0.00929719  0.56535030  0.96679522     0.62900
F1307       F  0.05050950  0.41306498  0.05041136    -0.22200
F1308       F  0.02085231  0.38348169  0.01265384    -0.19600
F1309       F  0.99643136  0.41106033  0.55541998    -0.19200
F1310       F  0.03584226  0.57037112  0.94782820    -0.19300
F1311       F  0.00703375  0.59527397  0.48613164    -0.19600
F1312       F  0.98318402  0.56257307  0.44614042    -0.22300
C1313       C  0.77950952  0.37921828  0.98887520    -0.05100
C1314       C  0.79922556  0.41195318  0.49543903     0.00800
C1315       C  0.78350052  0.44826996  0.50296482    -0.07800
C1316       C  0.74927818  0.44924142  0.50350999    -0.05100
C1317       C  0.73016010  0.41568191  0.49657539     0.00800
C1318       C  0.74533675  0.38023089  0.98910933    -0.07700
C1319       C  0.72676991  0.34263803  0.98073295     0.62700
H1320       H  0.79171821  0.35169213  0.98308320     0.13400
H1321       H  0.73709528  0.47671455  0.50949970     0.13400
C1322       C  0.80226602  0.48592728  0.51055720     0.62900
F1323       F  0.75189432  0.64150452  0.96889846    -0.22200
F1324       F  0.70533975  0.34957871  0.95611915    -0.19600
F1325       F  0.71230566  0.66054932  0.00103748    -0.19200
F1326       F  0.81920147  0.49731903  0.48455973    -0.19300
F1327       F  0.82373249  0.47967039  0.53526121    -0.19600
F1328       F  0.78192433  0.51695096  0.51900977    -0.22300
C1329       C  0.51425623  0.62505479  0.75132316    -0.05100
C1330       C  0.54487064  0.64310121  0.74896634     0.00800
C1331       C  0.54400106  0.34837665  0.74595311    -0.07800
C1332       C  0.51536756  0.37130413  0.74659904    -0.05100
C1333       C  0.48420995  0.35436905  0.74783116     0.00800
C1334       C  0.48497811  0.64678268  0.75108555    -0.07700
C1335       C  0.45300069  0.62465657  0.75289080     0.62700
H1336       H  0.51332130  0.59323159  0.75332369     0.13400
H1337       H  0.51725738  0.40317394  0.74597764     0.13400
C1338       C  0.57658980  0.36923993  0.74418117     0.62900
F1339       F  0.45764617  0.58424427  0.75515907    -0.22200
F1340       F  0.43037963  0.29938426  0.72412858    -0.19600
F1341       F  0.43611644  0.63739321  0.77891256    -0.19200
F1342       F  0.59302991  0.35609980  0.71801175    -0.19300
F1343       F  0.59802029  0.70227966  0.76764791    -0.19600
F1344       F  0.57306091  0.40986607  0.74201307    -0.22300
C1345       C  0.60972580  0.53842349  0.86787024    -0.05100
C1346       C  0.61568311  0.51175352  0.84299338     0.00800
C1347       C  0.62017935  0.47108665  0.84953927    -0.07800
C1348       C  0.61881283  0.45890375  0.88076432    -0.05100
C1349       C  0.61385217  0.48564195  0.90587527     0.00800
C1350       C  0.60882102  0.52633293  0.89924788    -0.07700
C1351       C  0.60305255  0.55727450  0.92478444     0.62700
H1352       H  0.60614277  0.56933360  0.86250019     0.13400
H1353       H  0.62230301  0.42790368  0.88578887     0.13400
C1354       C  0.62754391  0.44057278  0.82408676     0.62900
F1355       F  0.59879845  0.59479406  0.91282222    -0.22200
F1356       F  0.62954518  0.55860630  0.94514132    -0.19600
F1357       F  0.57529625  0.54811117  0.94094229    -0.19200
F1358       F  0.65475474  0.45176861  0.80788425    -0.19300
F1359       F  0.60116826  0.43732010  0.80375677    -0.19600
F1360       F  0.63373121  0.40345603  0.83611389    -0.22300
C1361       C  0.60801652  0.51782265  0.60008335    -0.05100
C1362       C  0.61666986  0.47796253  0.59509028     0.00800
C1363       C  0.62288092  0.45374801  0.62160257    -0.07800
C1364       C  0.62314732  0.47152415  0.65160907    -0.05100
C1365       C  0.61649515  0.51187595  0.65623842     0.00800
C1366       C  0.60708260  0.53505802  0.63019889    -0.07700
C1367       C  0.59536906  0.57757284  0.63386420     0.62700
H1368       H  0.60236021  0.53592058  0.58003740     0.13400
H1369       H  0.62936351  0.45402199  0.67185381     0.13400
C1370       C  0.62898929  0.40938248  0.61890008     0.62900
F1371       F  0.57993053  0.59077300  0.60692291    -0.22200
F1372       F  0.62152297  0.60204424  0.64033621    -0.19600
F1373       F  0.57325828  0.58056032  0.65784159    -0.19200
F1374       F  0.65800237  0.40206761  0.60390581    -0.19300
F1375       F  0.60361381  0.39161808  0.60241900    -0.19600
F1376       F  0.63104281  0.39175954  0.64787957    -0.22300
C1377       C  0.01931734  0.53157881  0.74808825    -0.05100
C1378       C  0.98811895  0.51456511  0.74859231     0.00800
C1379       C  0.98558004  0.47273150  0.75003224    -0.07800
C1380       C  0.01430849  0.45016309  0.75263568    -0.05100
C1381       C  0.04544028  0.46728993  0.75295343     0.00800
C1382       C  0.04805673  0.50886404  0.74965960    -0.07700
C1383       C  0.08062741  0.52958616  0.74699983     0.62700
H1384       H  0.02118853  0.56335629  0.74634380     0.13400
H1385       H  0.01249938  0.41840705  0.75462536     0.13400
C1386       C  0.95311767  0.45138911  0.74890371     0.62900
F1387       F  0.07698142  0.56965047  0.74154564    -0.22200
F1388       F  0.09769266  0.51331043  0.72228927    -0.19600
F1389       F  0.09851616  0.52566140  0.77444558    -0.19200
F1390       F  0.93651730  0.46022109  0.72147275    -0.19300
F1391       F  0.93479988  0.46277409  0.77435211    -0.19600
F1392       F  0.95686602  0.41067227  0.74967681    -0.22300
C1393       C  0.90341891  0.62318363  0.86537238    -0.05100
C1394       C  0.91611833  0.64737144  0.84204007     0.00800
C1395       C  0.92150032  0.35142951  0.84874824    -0.07800
C1396       C  0.92116893  0.36365889  0.88036390    -0.05100
C1397       C  0.90973176  0.33920524  0.90401988     0.00800
C1398       C  0.90278721  0.63500627  0.89701327    -0.07700
C1399       C  0.88839087  0.60750263  0.92086071     0.62700
H1400       H  0.89345456  0.59471577  0.85858820     0.13400
H1401       H  0.92999631  0.39277877  0.88693982     0.13400
C1402       C  0.93574450  0.37879207  0.82475703     0.62900
F1403       F  0.87624333  0.57320750  0.90708712    -0.22200
F1404       F  0.86311776  0.62633915  0.93614687    -0.19600
F1405       F  0.91215783  0.59662394  0.94236677    -0.19200
F1406       F  0.91150917  0.39127826  0.80432142    -0.19300
F1407       F  0.95982836  0.35912991  0.80836696    -0.19600
F1408       F  0.94962250  0.41209504  0.83855043    -0.22300
C1409       C  0.91042848  0.35191008  0.64868192    -0.05100
C1410       C  0.91809100  0.64587030  0.65337285     0.00800
C1411       C  0.92177445  0.62112928  0.62645278    -0.07800
C1412       C  0.92058651  0.63839784  0.59674075    -0.05100
C1413       C  0.91224590  0.34443571  0.59193402     0.00800
C1414       C  0.91083327  0.36943762  0.61905415    -0.07700
C1415       C  0.91022936  0.41437413  0.61734649     0.62700
H1416       H  0.90793163  0.37039556  0.66941240     0.13400
H1417       H  0.92205272  0.61961611  0.57607204     0.13400
C1418       C  0.92742743  0.57676068  0.62866672     0.62900
F1419       F  0.91255056  0.43219088  0.64666762    -0.22200
F1420       F  0.88140855  0.42703995  0.60356516    -0.19600
F1421       F  0.93633806  0.42710600  0.60024519    -0.19200
F1422       F  0.89917498  0.55840771  0.63758366    -0.19300
F1423       F  0.95207280  0.56913486  0.65021349    -0.19600
F1424       F  0.93657837  0.56018679  0.60030884    -0.22300
C1425       C  0.78872680  0.55261657  0.76032173    -0.05100
C1426       C  0.80155693  0.58734971  0.74805928     0.00800
C1427       C  0.77983477  0.61709366  0.73692042    -0.07800
C1428       C  0.74611426  0.61087391  0.73897703    -0.05100
C1429       C  0.73329110  0.57600397  0.75104123     0.00800
C1430       C  0.75503234  0.54615555  0.76198661    -0.07700
C1431       C  0.74321978  0.50765802  0.77568588     0.62700
H1432       H  0.80552016  0.53024699  0.76871447     0.13400
H1433       H  0.72931171  0.63327958  0.73065637     0.13400
C1434       C  0.79169647  0.65494486  0.72222376     0.62900
F1435       F  0.76853942  0.48530217  0.78801159    -0.22200
F1436       F  0.72805529  0.48502778  0.75256832    -0.19600
F1437       F  0.72172898  0.51560580  0.79955686    -0.19200
F1438       F  0.81315731  0.64595388  0.69853624    -0.19300
F1439       F  0.80007254  0.34069673  0.74470849    -0.19600
F1440       F  0.76023447  0.34008839  0.70852851    -0.22300
O1441       O  0.91869426  0.98103989  0.20784937    -0.57200
C1442       C  0.90862491  0.96447081  0.30636993     0.75500
O1443       O  0.85139611  0.88990696  0.24382419    -0.58300
C1444       C  0.91107702  0.96097862  0.18348333     0.75400
C1445       C  0.95540361  0.87347869  0.24749376     0.77800
Cd1446     Cd  0.90212513  0.92940373  0.24491506     1.37500
O1447       O  0.91214652  0.98509100  0.28215786    -0.57100
O1448       O  0.95914695  0.91059265  0.24741573    -0.56000
C1449       C  0.83254200  0.91983442  0.24405386     0.77800
O1450       O  0.92616224  0.86173973  0.24607696    -0.58300
O1451       O  0.90265148  0.92821390  0.30146245    -0.56800
O1452       O  0.89936915  0.92713755  0.18802574    -0.56800
O1453       O  0.84621418  0.95317901  0.24514762    -0.55900
O1454       O  0.61294152  0.83597990  0.20566368    -0.57200
C1455       C  0.61454963  0.85730284  0.30489986     0.75500
O1456       O  0.67330073  0.93044100  0.24412448    -0.58300
C1457       C  0.61491350  0.85751701  0.18171170     0.75400
C1458       C  0.57027530  0.94734543  0.24439541     0.77800
Cd1459     Cd  0.62264011  0.89080785  0.24372679     1.37500
O1460       O  0.60707977  0.83808049  0.28013368    -0.57100
O1461       O  0.56595015  0.91050486  0.24082023    -0.56000
C1462       C  0.69208317  0.90046656  0.24378051     0.77800
O1463       O  0.59962173  0.95831392  0.24732218    -0.58300
O1464       O  0.62514594  0.89186451  0.30090964    -0.56800
O1465       O  0.61974985  0.89394725  0.18680187    -0.56800
O1466       O  0.67834056  0.86719292  0.24283430    -0.55900
O1467       O  0.91878525  0.00386067  0.03480671    -0.57200
C1468       C  0.91391722  0.68959961  0.43754103     0.75500
O1469       O  0.85736063  0.76667071  0.49390664    -0.58300
C1470       C  0.91159163  0.69490298  0.06019725     0.75400
C1471       C  0.96115093  0.77693410  0.50117349     0.77800
Cd1472     Cd  0.90673259  0.72483283  0.49825542     1.37500
O1473       O  0.91631923  0.66899466  0.46200710    -0.57100
O1474       O  0.96238747  0.74004958  0.99947619    -0.56000
C1475       C  0.83631997  0.73972113  0.99440478     0.77800
O1476       O  0.93231243  0.79064746  0.50026551    -0.58300
O1477       O  0.90917927  0.72630620  0.44164561    -0.56800
O1478       O  0.90042963  0.72894322  0.05446864    -0.56800
O1479       O  0.85054986  0.70390966  0.49684592    -0.55900
O1480       O  0.61547610  0.81578136  0.03225415    -0.57200
C1481       C  0.61619537  0.79751161  0.43171104     0.75500
O1482       O  0.67662009  0.71904737  0.48578050    -0.58300
C1483       C  0.61943012  0.79288700  0.05531362     0.75400
C1484       C  0.57236039  0.70732804  0.49202537     0.77800
Cd1485     Cd  0.62647069  0.76034440  0.49122712     1.37500
O1486       O  0.61230735  0.81687591  0.45702745    -0.57100
O1487       O  0.56843954  0.74659743  0.99281541    -0.56000
C1488       C  0.69488817  0.75059570  0.99092577     0.77800
O1489       O  0.60125941  0.69408959  0.49066725    -0.58300
O1490       O  0.62412830  0.76151332  0.43460286    -0.56800
O1491       O  0.62554365  0.75717680  0.04854145    -0.56800
O1492       O  0.68284983  0.78115828  0.49436340    -0.55900
O1493       O  0.41855776  0.82051235  0.21250630    -0.57200
C1494       C  0.40902582  0.80116584  0.31039695     0.75500
O1495       O  0.35261911  0.72919863  0.24991691    -0.58300
C1496       C  0.41431937  0.79919396  0.18812926     0.75400
C1497       C  0.45665901  0.71483701  0.24971898     0.77800
Cd1498     Cd  0.40267156  0.76874076  0.24878718     1.37500
O1499       O  0.41093107  0.82320741  0.28677338    -0.57100
O1500       O  0.45989604  0.75189514  0.25293027    -0.56000
C1501       C  0.33317647  0.75853700  0.24896006     0.77800
O1502       O  0.42766513  0.70252681  0.24661640    -0.58300
O1503       O  0.40503451  0.76464822  0.30478074    -0.56800
O1504       O  0.40426483  0.76445053  0.19252255    -0.56800
O1505       O  0.34625803  0.79204849  0.24672455    -0.55900
O1506       O  0.11332986  0.00247781  0.22177551    -0.57200
C1507       C  0.11338638  0.68421030  0.31885783     0.75500
O1508       O  0.17405078  0.75971604  0.25878768    -0.58300
C1509       C  0.11610874  0.68837287  0.19626526     0.75400
C1510       C  0.07112610  0.77340976  0.25695749     0.77800
Cd1511     Cd  0.12450285  0.71854313  0.25899744     1.37500
O1512       O  0.10808423  0.00391295  0.29623552    -0.57100
O1513       O  0.06756376  0.73629059  0.25557169    -0.56000
C1514       C  0.19388681  0.73078711  0.25835550     0.77800
O1515       O  0.10017895  0.78536816  0.26023342    -0.58300
O1516       O  0.12263189  0.71956294  0.31576621    -0.56800
O1517       O  0.12385169  0.72357906  0.20286527    -0.56800
O1518       O  0.18127970  0.69690200  0.25986882    -0.55900
O1519       O  0.42066501  0.83206439  0.03577261    -0.57200
C1520       C  0.40854859  0.85554606  0.43920976     0.75500
O1521       O  0.35439284  0.92978750  0.50016993    -0.58300
C1522       C  0.41647790  0.85224650  0.06063452     0.75400
C1523       C  0.45869686  0.94141478  0.49990299     0.77800
Cd1524     Cd  0.40463181  0.88845141  0.50061230     1.37500
O1525       O  0.41219872  0.83390937  0.46297817    -0.57100
O1526       O  0.46163580  0.90252109  0.99581928    -0.56000
C1527       C  0.33510890  0.89794606  0.00163989     0.77800
O1528       O  0.42981073  0.95167458  0.00546440    -0.58300
O1529       O  0.40381067  0.89207271  0.44429436    -0.56800
O1530       O  0.40731356  0.88772101  0.05715839    -0.56800
O1531       O  0.34863585  0.86691239  0.50281238    -0.55900
O1532       O  0.11299078  0.98311926  0.04820736    -0.57200
C1533       C  0.11356822  0.96841533  0.44834377     0.75500
O1534       O  0.17623324  0.89510448  0.50528546    -0.58300
C1535       C  0.12009094  0.96105779  0.07115237     0.75400
C1536       C  0.07185119  0.88178032  0.50606029     0.77800
Cd1537     Cd  0.12578501  0.93448265  0.50828257     1.37500
O1538       O  0.11009319  0.98882077  0.47324045    -0.57100
O1539       O  0.06846038  0.91801332  0.00724026    -0.56000
C1540       C  0.19488603  0.92221569  0.00395360     0.77800
O1541       O  0.09993917  0.86689461  0.00522169    -0.58300
O1542       O  0.12267427  0.93292490  0.45193043    -0.56800
O1543       O  0.12988651  0.92661118  0.06419636    -0.56800
O1544       O  0.18156410  0.95838086  0.50564786    -0.55900
C1545       C  0.24437409  0.88469774  0.51499742    -0.05100
C1546       C  0.23082337  0.91705226  0.00246938     0.00800
C1547       C  0.25191035  0.94539073  0.98947733    -0.07800
C1548       C  0.28566118  0.93788626  0.99001566    -0.05100
C1549       C  0.29901266  0.90281506  0.00207303     0.00800
C1550       C  0.27797145  0.87668494  0.51476471    -0.07700
C1551       C  0.29014470  0.83743448  0.52754504     0.62700
H1552       H  0.22800082  0.86324402  0.52455657     0.13400
H1553       H  0.30200395  0.95946816  0.98057735     0.13400
C1554       C  0.23916737  0.98283918  0.97416133     0.62900
F1555       F  0.26539052  0.81566853  0.54033059    -0.22200
F1556       F  0.31270995  0.84049803  0.05003253    -0.19600
F1557       F  0.30332755  0.81482435  0.50363159    -0.19200
F1558       F  0.22624552  0.00807665  0.99652610    -0.19300
F1559       F  0.21201703  0.64365541  0.95478322    -0.19600
F1560       F  0.25938507  0.67445145  0.96303437    -0.22300
C1561       C  0.10693207  0.95635777  0.39146032    -0.05100
C1562       C  0.10815659  0.98414849  0.41630084     0.00800
C1563       C  0.10243650  0.68416910  0.40662234    -0.07800
C1564       C  0.10338974  0.69552087  0.37514938    -0.05100
C1565       C  0.10802833  0.66804666  0.35054575     0.00800
C1566       C  0.10679336  0.96758764  0.35995844    -0.07700
C1567       C  0.10647475  0.93556757  0.33460787     0.62700
H1568       H  0.10705048  0.92522500  0.39693260     0.13400
H1569       H  0.10126581  0.72653825  0.36953673     0.13400
C1570       C  0.09765173  0.71580647  0.43182551     0.62900
F1571       F  0.10543840  0.89794526  0.34686320    -0.22200
F1572       F  0.13430126  0.93792787  0.31702596    -0.19600
F1573       F  0.07923691  0.94017648  0.31558146    -0.19200
F1574       F  0.12483388  0.71756545  0.45129263    -0.19300
F1575       F  0.07839094  0.05109944  0.45358881    -0.19600
F1576       F  0.09296748  0.75297762  0.41935645    -0.22300
C1577       C  0.11876631  0.96740769  0.16073529    -0.05100
C1578       C  0.11214173  0.67398218  0.16327698     0.00800
C1579       C  0.11248681  0.69936140  0.13696847    -0.07800
C1580       C  0.11438808  0.01639953  0.10916306    -0.05100
C1581       C  0.11778060  0.97545452  0.10418544     0.00800
C1582       C  0.11926669  0.95020983  0.13054942    -0.07700
C1583       C  0.12155815  0.90539067  0.12741749     0.62700
H1584       H  0.12074071  0.94869091  0.18098601     0.13400
H1585       H  0.11294798  0.03533261  0.08901704     0.13400
C1586       C  0.11417992  0.74423775  0.14003384     0.62900
F1587       F  0.11910525  0.88704818  0.15599447    -0.22200
F1588       F  0.15123353  0.89469774  0.11497490    -0.19600
F1589       F  0.09655319  0.89136092  0.10831766    -0.19200
F1590       F  0.14402861  0.75522118  0.15268664    -0.19300
F1591       F  0.08942778  0.75815690  0.15884571    -0.19600
F1592       F  0.11068757  0.76250317  0.11140765    -0.22300
C1593       C  0.39702146  0.79180303  0.36601760    -0.05100
C1594       C  0.41022788  0.81626339  0.34317741     0.00800
C1595       C  0.42357836  0.85336166  0.35238507    -0.07800
C1596       C  0.42328924  0.86423243  0.38423550    -0.05100
C1597       C  0.40982955  0.83983587  0.40685899     0.00800
C1598       C  0.39605242  0.80312269  0.39767905    -0.07700
C1599       C  0.37887677  0.77682995  0.42065131     0.62700
H1600       H  0.38659993  0.76374460  0.35875878     0.13400
H1601       H  0.43333781  0.89240037  0.39178597     0.13400
C1602       C  0.43801825  0.88157503  0.32912838     0.62900
F1603       F  0.36406317  0.74477729  0.40589097    -0.22200
F1604       F  0.35506036  0.79829933  0.43597943    -0.19600
F1605       F  0.40098829  0.76232480  0.44228128    -0.19200
F1606       F  0.41380757  0.89505405  0.30906805    -0.19300
F1607       F  0.46197925  0.86247134  0.31219934    -0.19600
F1608       F  0.45198503  0.91426791  0.34376703    -0.22300
C1609       C  0.41649903  0.78518647  0.13126036    -0.05100
C1610       C  0.41992831  0.81320821  0.15582637     0.00800
C1611       C  0.42748294  0.85290235  0.14851413    -0.07800
C1612       C  0.42746748  0.86364226  0.11690294    -0.05100
C1613       C  0.42126900  0.83622026  0.09249959     0.00800
C1614       C  0.41744872  0.79575578  0.09965648    -0.07700
C1615       C  0.41346559  0.76383794  0.07445185     0.62700
H1616       H  0.41227090  0.75461020  0.13696288     0.13400
H1617       H  0.43160874  0.89418564  0.11096720     0.13400
C1618       C  0.43506601  0.88421983  0.17344986     0.62900
F1619       F  0.41020371  0.72657406  0.08695115    -0.22200
F1620       F  0.44061278  0.76297383  0.05578257    -0.19600
F1621       F  0.38598400  0.77139487  0.05636660    -0.19200
F1622       F  0.46057908  0.87156796  0.19236740    -0.19300
F1623       F  0.40785773  0.89139930  0.19129254    -0.19600
F1624       F  0.44421194  0.91971054  0.16060152    -0.22300
C1625       C  0.24171154  0.77522353  0.26067868    -0.05100
C1626       C  0.22974302  0.73670857  0.25587025     0.00800
C1627       C  0.25194578  0.70594563  0.24757816    -0.07800
C1628       C  0.28517572  0.71495414  0.24544810    -0.05100
C1629       C  0.29720460  0.75331292  0.25056544     0.00800
C1630       C  0.27490409  0.78440987  0.25783144    -0.07700
C1631       C  0.28546909  0.82718845  0.26257717     0.62700
H1632       H  0.22461043  0.79848773  0.26661970     0.13400
H1633       H  0.30226432  0.69165516  0.23955843     0.13400
C1634       C  0.24124267  0.00061737  0.24449099     0.62900
F1635       F  0.25972903  0.85181743  0.27043441    -0.22200
F1636       F  0.29834072  0.84104770  0.23519140    -0.19600
F1637       F  0.30845117  0.82987796  0.28650052    -0.19200
F1638       F  0.21771803  0.99951453  0.22097847    -0.19300
F1639       F  0.22902963  0.98501346  0.27154734    -0.19600
F1640       F  0.26670039  0.97650331  0.23500696    -0.22300
C1641       C  0.51289304  0.69995402  0.98554634    -0.05100
C1642       C  0.54320862  0.68163716  0.49327519     0.00800
C1643       C  0.54757396  0.97159812  0.50098535    -0.07800
C1644       C  0.51856086  0.94973131  0.50158321    -0.05100
C1645       C  0.48762271  0.96775973  0.49959443     0.00800
C1646       C  0.48365025  0.67877753  0.98675823    -0.07700
C1647       C  0.45210915  0.69891294  0.97680391     0.62700
H1648       H  0.51229814  0.73028056  0.97783877     0.13400
H1649       H  0.51993193  0.91797080  0.50411819     0.15000
C1650       C  0.57986227  0.95019161  0.50591214     0.62900
F1651       F  0.45750362  0.73642159  0.96557348    -0.22200
F1652       F  0.43174190  0.70267329  0.00208746    -0.19600
F1653       F  0.43811528  0.67257694  0.44997335    -0.19200
F1654       F  0.59619403  0.96449260  0.03261998    -0.19300
F1655       F  0.59847959  0.95286545  0.47943053    -0.19600
F1656       F  0.57573512  0.91043288  0.51197485    -0.22300
C1657       C  0.04563593  0.81866234  0.51844453    -0.05100
C1658       C  0.04307287  0.85570441  0.50434386     0.00800
C1659       C  0.01340965  0.86685174  0.48924230    -0.07800
C1660       C  0.98737328  0.84011373  0.48889360    -0.05100
C1661       C  0.98993136  0.80304734  0.50299027     0.00800
C1662       C  0.01945669  0.79214092  0.51844520    -0.07700
C1663       C  0.02333251  0.75337980  0.53573169     0.62700
H1664       H  0.06738436  0.80974222  0.02867788     0.13400
H1665       H  0.96464602  0.84794422  0.47734103     0.13400
C1666       C  0.00914597  0.90627000  0.47293222     0.62900
F1667       F  0.05196341  0.75207592  0.55322547    -0.22200
F1668       F  0.02386085  0.72209110  0.51453188    -0.19600
F1669       F  0.99672969  0.74832823  0.05521724    -0.19200
F1670       F  0.03403674  0.91154636  0.45205598    -0.19300
F1671       F  0.00892198  0.93671398  0.99488528    -0.19600
F1672       F  0.97877413  0.90897729  0.95667511    -0.22300
C1673       C  0.78364523  0.70801213  0.48463803    -0.05100
C1674       C  0.80030902  0.74456139  0.99215522     0.00800
C1675       C  0.78364580  0.78070895  0.99804297    -0.07800
C1676       C  0.74942406  0.78078416  0.99709900    -0.05100
C1677       C  0.73111320  0.74643576  0.99049685     0.00800
C1678       C  0.74940776  0.70782539  0.48332976    -0.07700
C1679       C  0.73214988  0.66915172  0.47559325     0.62700
H1680       H  0.79677833  0.68074434  0.48012199     0.13400
H1681       H  0.73661351  0.80820094  0.00184928     0.13400
C1682       C  0.80139082  0.81907943  0.00574836     0.62900
F1683       F  0.75180573  0.97636443  0.46379987    -0.22200
F1684       F  0.71256634  0.67351987  0.44925081    -0.19600
F1685       F  0.71382835  0.99231331  0.49863065    -0.19200
F1686       F  0.81986891  0.82987284  0.98058077    -0.19300
F1687       F  0.82127261  0.81425091  0.03184048    -0.19600
F1688       F  0.78012003  0.84995975  0.01215293    -0.22300
C1689       C  0.51094223  0.95802525  0.24836073    -0.05100
C1690       C  0.54189221  0.97502684  0.24546824     0.00800
C1691       C  0.54560325  0.68459133  0.24539098    -0.07800
C1692       C  0.51638029  0.70642502  0.24620308    -0.05100
C1693       C  0.48581898  0.68836285  0.24922909     0.00800
C1694       C  0.48221097  0.98074101  0.24910416    -0.07700
C1695       C  0.44985991  0.95967528  0.25206450     0.62700
H1696       H  0.50929495  0.92621680  0.25004663     0.13400
H1697       H  0.51729107  0.73823226  0.24402805     0.13400
C1698       C  0.57731318  0.70614079  0.23995000     0.62900
F1699       F  0.45375192  0.91922640  0.25518387    -0.22200
F1700       F  0.43373192  0.63059685  0.22703818    -0.19600
F1701       F  0.43384559  0.97371134  0.27820885    -0.19200
F1702       F  0.59252357  0.68997252  0.21409166    -0.19300
F1703       F  0.59624959  0.03118841  0.26584495    -0.19600
F1704       F  0.57239604  0.74601115  0.23449648    -0.22300
C1705       C  0.61374659  0.86814857  0.36247725    -0.05100
C1706       C  0.61168101  0.84113994  0.33707951     0.00800
C1707       C  0.60855006  0.80023519  0.34337223    -0.07800
C1708       C  0.60871162  0.78810250  0.37466630    -0.05100
C1709       C  0.61228058  0.81484818  0.39997920     0.00800
C1710       C  0.61408561  0.85590942  0.39384067    -0.07700
C1711       C  0.61688885  0.88685020  0.41989945     0.62700
H1712       H  0.61552756  0.89934310  0.35755805     0.13400
H1713       H  0.60663017  0.75695017  0.37962294     0.13400
C1714       C  0.60605877  0.76897271  0.31757726     0.62900
F1715       F  0.61948846  0.92475954  0.40846501    -0.22200
F1716       F  0.64427745  0.87956996  0.43819782    -0.19600
F1717       F  0.58944168  0.88579413  0.43810999    -0.19200
F1718       F  0.63318803  0.77050282  0.29894562    -0.19300
F1719       F  0.57821065  0.77534486  0.29973910    -0.19600
F1720       F  0.60436489  0.73111588  0.32930610    -0.22300
C1721       C  0.60156122  0.84393788  0.09364955    -0.05100
C1722       C  0.61699055  0.80729728  0.08832656     0.00800
C1723       C  0.62999761  0.78622080  0.11435377    -0.07800
C1724       C  0.62777006  0.80344266  0.14442693    -0.05100
C1725       C  0.61340068  0.84064219  0.14946782     0.00800
C1726       C  0.59932382  0.86098693  0.12376809    -0.07700
C1727       C  0.58139467  0.90010701  0.12792348     0.62700
H1728       H  0.59135376  0.85951600  0.07382102     0.13400
H1729       H  0.63810756  0.78828910  0.16440765     0.13400
C1730       C  0.64680292  0.74617706  0.11087853     0.62900
F1731       F  0.56472218  0.91084829  0.10092709    -0.22200
F1732       F  0.60328920  0.92977983  0.13540680    -0.19600
F1733       F  0.55894662  0.89715393  0.15149731    -0.19200
F1734       F  0.67229834  0.74877841  0.09031624    -0.19300
F1735       F  0.62468665  0.71830396  0.09999148    -0.19600
F1736       F  0.65952277  0.73290450  0.13902295    -0.22300
C1737       C  0.01507234  0.86426730  0.25294281    -0.05100
C1738       C  0.98429151  0.84643513  0.24945684     0.00800
C1739       C  0.98256537  0.80448658  0.24781365    -0.07800
C1740       C  0.01154897  0.78243765  0.25084278    -0.05100
C1741       C  0.04227994  0.80030404  0.25452475     0.00800
C1742       C  0.04414914  0.84222697  0.25496979    -0.07700
C1743       C  0.07633757  0.86415623  0.25713083     0.62700
H1744       H  0.01635269  0.89619836  0.25394193     0.13400
H1745       H  0.01026836  0.75049763  0.25011810     0.13400
C1746       C  0.95072092  0.78253502  0.24253520     0.62900
F1747       F  0.07214038  0.90476291  0.25604239    -0.22200
F1748       F  0.09564456  0.85317401  0.23224275    -0.19600
F1749       F  0.09217147  0.85558761  0.28501936    -0.19200
F1750       F  0.93609542  0.79455802  0.21489446    -0.19300
F1751       F  0.93021278  0.79009297  0.26721905    -0.19600
F1752       F  0.95525208  0.74195493  0.24033527    -0.22300
C1753       C  0.89976230  0.95611702  0.36291599    -0.05100
C1754       C  0.91051914  0.98077830  0.33899516     0.00800
C1755       C  0.92973103  0.68480407  0.35063312    -0.07800
C1756       C  0.92889629  0.69678375  0.38227740    -0.05100
C1757       C  0.91626243  0.67257432  0.40548979     0.00800
C1758       C  0.89994658  0.96808752  0.39451591    -0.07700
C1759       C  0.88698370  0.94015589  0.41882974     0.62700
H1760       H  0.89073302  0.92702091  0.35665892     0.13400
H1761       H  0.93808367  0.72561699  0.38921088     0.13400
C1762       C  0.94494919  0.71203415  0.32713367     0.62900
F1763       F  0.87489440  0.90559729  0.40544492    -0.22200
F1764       F  0.86199446  0.95834205  0.43499981    -0.19600
F1765       F  0.91170087  0.92977475  0.43947930    -0.19200
F1766       F  0.92127722  0.72559201  0.30656084    -0.19300
F1767       F  0.96881980  0.69186171  0.31083851    -0.19600
F1768       F  0.95936337  0.74466366  0.34145182    -0.22300
C1769       C  0.91464237  0.68732117  0.14951522    -0.05100
C1770       C  0.91462381  0.97678896  0.15144516     0.00800
C1771       C  0.91851500  0.95214113  0.12453459    -0.07800
C1772       C  0.91806140  0.96955205  0.09487960    -0.05100
C1773       C  0.91474659  0.67986399  0.09271788     0.00800
C1774       C  0.91394100  0.70482173  0.11985676    -0.07700
C1775       C  0.91279236  0.74971819  0.11804592     0.62700
H1776       H  0.91267590  0.70581729  0.17030387     0.13400
H1777       H  0.91944565  0.95075650  0.07421444     0.13400
C1778       C  0.92391279  0.90774163  0.12674450     0.62900
F1779       F  0.91675840  0.76766777  0.14716796    -0.22200
F1780       F  0.88306079  0.76185545  0.10586928    -0.19600
F1781       F  0.93759465  0.76277166  0.09940370    -0.19200
F1782       F  0.89534923  0.88949538  0.13489425    -0.19300
F1783       F  0.94794860  0.89989460  0.14886879    -0.19600
F1784       F  0.93381066  0.89128785  0.09858881    -0.22300
C1785       C  0.78329853  0.88101362  0.25518134    -0.05100
C1786       C  0.79646873  0.91590961  0.24352597     0.00800
C1787       C  0.77508151  0.94548579  0.23155701    -0.07800
C1788       C  0.74130994  0.93909121  0.23235517    -0.05100
C1789       C  0.72814527  0.90423356  0.24405812     0.00800
C1790       C  0.74953213  0.87444209  0.25569261    -0.07700
C1791       C  0.73717884  0.83603236  0.26910679     0.62700
H1792       H  0.79985927  0.85872954  0.26412570     0.13400
H1793       H  0.72474964  0.96142974  0.22348879     0.13400
C1794       C  0.78742555  0.98337867  0.21731429     0.62900
F1795       F  0.76204904  0.81364629  0.28219583    -0.22200
F1796       F  0.72265206  0.81338000  0.24562016    -0.19600
F1797       F  0.71494864  0.84414359  0.29231609    -0.19200
F1798       F  0.81014624  0.97449974  0.19471886    -0.19300
F1799       F  0.80615391  0.67862235  0.24423820    -0.19600
F1800       F  0.76578718  0.67651849  0.20859328    -0.22300
O1801       O  0.91617488  0.98049598  0.70741659    -0.57200
C1802       C  0.90690483  0.96328171  0.80602906     0.75500
O1803       O  0.85032251  0.88842689  0.74325691    -0.58300
C1804       C  0.90905781  0.96021922  0.68302083     0.75400
C1805       C  0.95428687  0.87296424  0.74700122     0.77800
Cd1806     Cd  0.90065209  0.92837907  0.74444510     1.37500
O1807       O  0.91117879  0.98373159  0.78185113    -0.57100
O1808       O  0.95777518  0.91012114  0.74715240    -0.56000
C1809       C  0.83123757  0.91813658  0.74311350     0.77800
O1810       O  0.92513597  0.86093867  0.74536151    -0.58300
O1811       O  0.90004286  0.92727260  0.80105360    -0.56800
O1812       O  0.89821336  0.92595020  0.68755031    -0.56800
O1813       O  0.84463256  0.95165073  0.74405101    -0.55900
O1814       O  0.61108652  0.83231741  0.70479662    -0.57200
C1815       C  0.61420257  0.85543031  0.80441052     0.75500
O1816       O  0.67211534  0.92694111  0.74244510    -0.58300
C1817       C  0.61414312  0.85351328  0.68077299     0.75400
C1818       C  0.56960592  0.94397678  0.74305789     0.77800
Cd1819     Cd  0.62171617  0.88727860  0.74264511     1.37500
O1820       O  0.60701404  0.83529534  0.78000849    -0.57100
O1821       O  0.56501926  0.90707863  0.74034685    -0.56000
C1822       C  0.69100209  0.89706885  0.74271669     0.77800
O1823       O  0.59903248  0.95479929  0.74522949    -0.58300
O1824       O  0.62431821  0.89005589  0.79975187    -0.56800
O1825       O  0.61993896  0.88975306  0.68572467    -0.56800
O1826       O  0.67738248  0.86371661  0.74247973    -0.55900
O1827       O  0.91730149  0.00480201  0.53464203    -0.57200
C1828       C  0.91218510  0.69005866  0.93745679     0.75500
O1829       O  0.85614898  0.76829431  0.99385469    -0.58300
C1830       C  0.91337976  0.69423662  0.56036209     0.75400
C1831       C  0.95968593  0.77724460  0.00076123     0.77800
Cd1832     Cd  0.90505386  0.72565416  0.99808243     1.37500
O1833       O  0.91447361  0.66958647  0.96199616    -0.57100
O1834       O  0.96408412  0.73975479  0.49997261    -0.56000
C1835       C  0.83773731  0.73787100  0.49433521     0.77800
O1836       O  0.93093720  0.79123253  0.00005099    -0.58300
O1837       O  0.90737626  0.72677515  0.94141214    -0.56800
O1838       O  0.90171724  0.72801456  0.55455485    -0.56800
O1839       O  0.84884475  0.70559961  0.99684442    -0.55900
O1840       O  0.61625369  0.81220650  0.53142060    -0.57200
C1841       C  0.61553034  0.79950869  0.93239070     0.75500
O1842       O  0.67537177  0.72187022  0.98769981    -0.58300
C1843       C  0.62039025  0.78923114  0.55440509     0.75400
C1844       C  0.57201556  0.70939469  0.99298307     0.77800
Cd1845     Cd  0.62547072  0.76338067  0.99233726     1.37500
O1846       O  0.61161483  0.81950684  0.95740584    -0.57100
O1847       O  0.56919698  0.74456941  0.49210668    -0.56000
C1848       C  0.69608065  0.74773034  0.48975735     0.77800
O1849       O  0.60108454  0.69670085  0.99205908    -0.58300
O1850       O  0.62327955  0.76354986  0.93585381    -0.56800
O1851       O  0.62703448  0.75368227  0.54751027    -0.56800
O1852       O  0.68178758  0.78421723  0.99488715    -0.55900
O1853       O  0.41810956  0.82115699  0.71221698    -0.57200
C1854       C  0.40928673  0.80063977  0.81007139     0.75500
O1855       O  0.35270839  0.72927513  0.74893881    -0.58300
C1856       C  0.41417313  0.79987557  0.68777596     0.75400
C1857       C  0.45723435  0.71508469  0.74944740     0.77800
Cd1858     Cd  0.40295531  0.76878654  0.74832567     1.37500
O1859       O  0.41172544  0.82280863  0.78657746    -0.57100
O1860       O  0.46036469  0.75215563  0.75269010    -0.56000
C1861       C  0.33332761  0.75870616  0.74854157     0.77800
O1862       O  0.42827527  0.70272637  0.74611202    -0.58300
O1863       O  0.40475822  0.76426505  0.80423502    -0.56800
O1864       O  0.40470886  0.76486151  0.69208123    -0.56800
O1865       O  0.34652764  0.79221569  0.74688458    -0.55900
O1866       O  0.11397227  0.00444700  0.72203893    -0.57200
C1867       C  0.11314847  0.68510634  0.81863054     0.75500
O1868       O  0.17407281  0.76055225  0.75860200    -0.58300
C1869       C  0.11601513  0.68933201  0.69608554     0.75400
C1870       C  0.07068230  0.77402882  0.75661260     0.77800
Cd1871     Cd  0.12435921  0.71951638  0.75878910     1.37500
O1872       O  0.10929837  0.00527804  0.79624346    -0.57100
O1873       O  0.06734814  0.73687666  0.75525704    -0.56000
C1874       C  0.19383644  0.73154457  0.75796936     0.77800
O1875       O  0.09966669  0.78624617  0.75992411    -0.58300
O1876       O  0.12240661  0.72046684  0.81558701    -0.56800
O1877       O  0.12344453  0.72464207  0.70267621    -0.56800
O1878       O  0.18112329  0.69771013  0.75936760    -0.55900
O1879       O  0.42035571  0.83422675  0.53561153    -0.57200
C1880       C  0.40893974  0.85360168  0.93925512     0.75500
O1881       O  0.35414075  0.92716904  0.99921697    -0.58300
C1882       C  0.41620940  0.85429141  0.56053162     0.75400
C1883       C  0.45853078  0.93935431  0.00068032     0.77800
Cd1884     Cd  0.40459526  0.88618758  0.00071870     1.37500
O1885       O  0.41230884  0.83173532  0.96293028    -0.57100
O1886       O  0.46182502  0.90445786  0.49573448    -0.56000
C1887       C  0.33525836  0.90057199  0.50196862     0.77800
O1888       O  0.42995298  0.95384629  0.50435190    -0.58300
O1889       O  0.40436484  0.89012226  0.94450283    -0.56800
O1890       O  0.40737684  0.88990633  0.55717034    -0.56800
O1891       O  0.34865457  0.86444997  0.00340098    -0.55900
O1892       O  0.11321546  0.98494713  0.54855089    -0.57200
C1893       C  0.11408699  0.96761207  0.94804918     0.75500
O1894       O  0.17583839  0.89277383  0.00459647    -0.58300
C1895       C  0.12039024  0.96291263  0.57149763     0.75400
C1896       C  0.07115631  0.88087347  0.00521602     0.77800
Cd1897     Cd  0.12562508  0.93280432  0.00782252     1.37500
O1898       O  0.11106194  0.98785711  0.97308390    -0.57100
O1899       O  0.06880990  0.91886568  0.50835739    -0.56000
C1900       C  0.19508770  0.92471748  0.50450589     0.77800
O1901       O  0.10074952  0.86819029  0.50575282    -0.58300
O1902       O  0.12235267  0.93178478  0.95140639    -0.56800
O1903       O  0.13016336  0.92845726  0.56455331    -0.56800
O1904       O  0.18158741  0.95599296  0.00535884    -0.55900
C1905       C  0.24410033  0.88191512  0.01426866    -0.05100
C1906       C  0.23105330  0.91980561  0.50317465     0.00800
C1907       C  0.25212713  0.94828752  0.49033643    -0.07800
C1908       C  0.28587268  0.94074672  0.49076462    -0.05100
C1909       C  0.29921913  0.90560612  0.50268064     0.00800
C1910       C  0.27769948  0.87382850  0.01399858    -0.07700
C1911       C  0.28977260  0.83435948  0.02644047     0.62700
H1912       H  0.22768806  0.86051212  0.02383660     0.13400
H1913       H  0.30222094  0.96231971  0.48132135     0.13400
C1914       C  0.23939650  0.98593170  0.47531128     0.62900
F1915       F  0.26489764  0.81228160  0.03868049    -0.22200
F1916       F  0.31335861  0.84398941  0.55081757    -0.19600
F1917       F  0.30325016  0.81224775  0.00239477    -0.19200
F1918       F  0.22619611  0.01073590  0.49782008    -0.19300
F1919       F  0.21168808  0.64420087  0.45599477    -0.19600
F1920       F  0.25910452  0.67476452  0.46453742    -0.22300
C1921       C  0.10767158  0.95651034  0.89100918    -0.05100
C1922       C  0.10910588  0.98390679  0.91611441     0.00800
C1923       C  0.10213582  0.68488424  0.90639740    -0.07800
C1924       C  0.10309235  0.69630560  0.87493686    -0.05100
C1925       C  0.10770811  0.66888238  0.85029409     0.00800
C1926       C  0.10769025  0.96820723  0.85961516    -0.07700
C1927       C  0.10707899  0.93654436  0.83398048     0.62700
H1928       H  0.10744912  0.92529685  0.89618356     0.13400
H1929       H  0.10099544  0.72733931  0.86936854     0.13400
C1930       C  0.09714846  0.71644718  0.93161658     0.62900
F1931       F  0.10563525  0.89876785  0.84589375    -0.22200
F1932       F  0.13496370  0.93873398  0.81646459    -0.19600
F1933       F  0.07992135  0.94180992  0.81495809    -0.19200
F1934       F  0.12443873  0.71870940  0.95090750    -0.19300
F1935       F  0.08003004  0.05088040  0.95389839    -0.19600
F1936       F  0.09191044  0.75352083  0.91914938    -0.22300
C1937       C  0.11973038  0.96935146  0.66107046    -0.05100
C1938       C  0.11210929  0.67486948  0.66310898     0.00800
C1939       C  0.11323991  0.70005241  0.63670809    -0.07800
C1940       C  0.11434673  0.01821833  0.60949072    -0.05100
C1941       C  0.11816863  0.97731930  0.60452576     0.00800
C1942       C  0.12020619  0.95212692  0.63090495    -0.07700
C1943       C  0.12316062  0.90734998  0.62782983     0.62700
H1944       H  0.12209548  0.95070527  0.68133223     0.13400
H1945       H  0.11250536  0.03711266  0.58934318     0.13400
C1946       C  0.11584505  0.74487553  0.63959733     0.62900
F1947       F  0.12133001  0.88902121  0.65646684    -0.22200
F1948       F  0.15285167  0.89731233  0.61510348    -0.19600
F1949       F  0.09817050  0.89268450  0.60901838    -0.19200
F1950       F  0.14565470  0.75502422  0.65278570    -0.19300
F1951       F  0.09097886  0.75972638  0.65783731    -0.19600
F1952       F  0.11337409  0.76299998  0.61083567    -0.22300
C1953       C  0.39743696  0.79063813  0.86563857    -0.05100
C1954       C  0.41052670  0.81541328  0.84294866     0.00800
C1955       C  0.42373219  0.85250393  0.85239838    -0.07800
C1956       C  0.42360840  0.86291652  0.88434103    -0.05100
C1957       C  0.41027294  0.83819315  0.90681461     0.00800
C1958       C  0.39647696  0.80159149  0.89736800    -0.07700
C1959       C  0.37927928  0.77502035  0.92011420     0.62700
H1960       H  0.38707447  0.76261400  0.85821516     0.13400
H1961       H  0.43363406  0.89101852  0.89208115     0.13400
C1962       C  0.43776323  0.88123641  0.82930735     0.62900
F1963       F  0.36435771  0.74322780  0.90509371    -0.22200
F1964       F  0.35554916  0.79632980  0.93569470    -0.19600
F1965       F  0.40140392  0.76012571  0.94153436    -0.19200
F1966       F  0.41337011  0.89432745  0.80928262    -0.19300
F1967       F  0.46203549  0.86280523  0.81234120    -0.19600
F1968       F  0.45118854  0.91415220  0.84410677    -0.22300
C1969       C  0.41500409  0.78665506  0.63075370    -0.05100
C1970       C  0.41943174  0.81422284  0.65549529     0.00800
C1971       C  0.42777263  0.85374907  0.64838767    -0.07800
C1972       C  0.42762806  0.86487763  0.61685001    -0.05100
C1973       C  0.42069594  0.83791087  0.59230909     0.00800
C1974       C  0.41592496  0.79753577  0.59922708    -0.07700
C1975       C  0.41092870  0.76603921  0.57384390     0.62700
H1976       H  0.41008231  0.75617980  0.63625413     0.13400
H1977       H  0.43236474  0.89534380  0.61108274     0.13400
C1978       C  0.43648505  0.88443795  0.67347200     0.62900
F1979       F  0.40653741  0.72884559  0.58612791    -0.22200
F1980       F  0.43801176  0.76410335  0.55511823    -0.19600
F1981       F  0.38366966  0.77498271  0.55585587    -0.19200
F1982       F  0.46176594  0.87048019  0.69208802    -0.19300
F1983       F  0.40965032  0.89258634  0.69158864    -0.19600
F1984       F  0.44656459  0.91964172  0.66078988    -0.22300
C1985       C  0.24180491  0.77580212  0.76005019    -0.05100
C1986       C  0.22973028  0.73731203  0.75541355     0.00800
C1987       C  0.25187839  0.70641827  0.74726256    -0.07800
C1988       C  0.28515681  0.71527042  0.74517787    -0.05100
C1989       C  0.29730146  0.75361152  0.75014943     0.00800
C1990       C  0.27503259  0.78484531  0.75719658    -0.07700
C1991       C  0.28564396  0.82764727  0.76166450     0.62700
H1992       H  0.22475355  0.79917047  0.76586463     0.13400
H1993       H  0.30218846  0.69185263  0.73943562     0.13400
C1994       C  0.24200136  0.00145601  0.74587130     0.62900
F1995       F  0.25987637  0.85247082  0.76905666    -0.22200
F1996       F  0.29882563  0.84107592  0.73428007    -0.19600
F1997       F  0.30838064  0.83060140  0.78578426    -0.19200
F1998       F  0.21883904  0.00004897  0.72203720    -0.19300
F1999       F  0.22929332  0.98648499  0.77293944    -0.19600
F2000       F  0.26748178  0.97696388  0.73704962    -0.22300
C2001       C  0.51336693  0.69807778  0.48322951    -0.05100
C2002       C  0.54311532  0.68317782  0.99401816     0.00800
C2003       C  0.54743103  0.96927359  0.00227294    -0.07800
C2004       C  0.51836920  0.94751815  0.00283228    -0.05100
C2005       C  0.48748386  0.96564922  0.00072313     0.00800
C2006       C  0.48395597  0.67722091  0.48450034    -0.07700
C2007       C  0.45282436  0.69655816  0.47252071     0.62700
H2008       H  0.51324388  0.72779079  0.47417545     0.13400
H2009       H  0.51965528  0.91575424  0.00538154     0.15000
C2010       C  0.57965969  0.94778000  0.00730220     0.62900
F2011       F  0.45879057  0.73273583  0.45913892    -0.22200
F2012       F  0.43176765  0.70288916  0.49699669    -0.19600
F2013       F  0.43690606  0.67700279  0.95325478    -0.19200
F2014       F  0.59640269  0.96682493  0.53125848    -0.19300
F2015       F  0.59833579  0.95025326  0.98085016    -0.19600
F2016       F  0.57542458  0.90806578  0.01345615    -0.22300
C2017       C  0.04457775  0.81794756  0.01744145    -0.05100
C2018       C  0.04214450  0.85514696  0.00356482     0.00800
C2019       C  0.01238203  0.86675754  0.98884869    -0.07800
C2020       C  0.98616644  0.84028504  0.98861524    -0.05100
C2021       C  0.98862788  0.80306317  0.00246246     0.00800
C2022       C  0.01822273  0.79170680  0.01756267    -0.07700
C2023       C  0.02199603  0.75275892  0.03461713     0.62700
H2024       H  0.06839409  0.81081486  0.52993779     0.13400
H2025       H  0.96336901  0.84844354  0.97734240     0.13400
C2026       C  0.00816029  0.90637464  0.97282596     0.62900
F2027       F  0.05082749  0.75096086  0.05176333    -0.22200
F2028       F  0.02200515  0.72162107  0.01326528    -0.19600
F2029       F  0.99784398  0.74878819  0.55605019    -0.19200
F2030       F  0.03272115  0.91151813  0.95157499    -0.19300
F2031       F  0.00928982  0.93680093  0.49483191    -0.19600
F2032       F  0.98002056  0.90835630  0.45629918    -0.22300
C2033       C  0.78210847  0.71046598  0.98475081    -0.05100
C2034       C  0.80165840  0.74232972  0.49185428     0.00800
C2035       C  0.78475298  0.77844285  0.49722671    -0.07800
C2036       C  0.75052530  0.77830949  0.49591724    -0.05100
C2037       C  0.73238241  0.74377305  0.48949493     0.00800
C2038       C  0.74789605  0.71048551  0.98379147    -0.07700
C2039       C  0.73042153  0.67201630  0.97582912     0.62700
H2040       H  0.79507715  0.68318898  0.97983605     0.13400
H2041       H  0.73757028  0.80573449  0.50023814     0.13400
C2042       C  0.80225375  0.81701724  0.50479937     0.62900
F2043       F  0.75230406  0.97302556  0.96476097    -0.22200
F2044       F  0.71030366  0.67700686  0.94993293    -0.19600
F2045       F  0.71405435  0.98924334  0.99924585    -0.19200
F2046       F  0.82099463  0.82759069  0.47975138    -0.19300
F2047       F  0.82183624  0.81264978  0.53115414    -0.19600
F2048       F  0.78078721  0.84784880  0.51070935    -0.22300
C2049       C  0.51045349  0.95543540  0.74781062    -0.05100
C2050       C  0.54145966  0.97196196  0.74405014     0.00800
C2051       C  0.54631762  0.68481476  0.74611018    -0.07800
C2052       C  0.51708957  0.70669363  0.74679251    -0.05100
C2053       C  0.48644758  0.68862192  0.74920036     0.00800
C2054       C  0.48194621  0.97854576  0.74872231    -0.07700
C2055       C  0.44948830  0.95807291  0.75271578     0.62700
H2056       H  0.50859092  0.92371998  0.75011154     0.13400
H2057       H  0.51806380  0.73854293  0.74499800     0.13400
C2058       C  0.57816378  0.70642558  0.74151132     0.62900
F2059       F  0.45305491  0.91763763  0.75618340    -0.22200
F2060       F  0.43451406  0.63110510  0.72614025    -0.19600
F2061       F  0.43432069  0.97286043  0.77909168    -0.19200
F2062       F  0.59368342  0.69106381  0.71553473    -0.19300
F2063       F  0.59661288  0.02838561  0.76233150    -0.19600
F2064       F  0.57344173  0.74649407  0.73683324    -0.22300
C2065       C  0.61343230  0.86806301  0.86180742    -0.05100
C2066       C  0.61147501  0.84027172  0.83692335     0.00800
C2067       C  0.60837087  0.79960024  0.84402048    -0.07800
C2068       C  0.60841250  0.78846569  0.87553361    -0.05100
C2069       C  0.61181430  0.81596975  0.90034315     0.00800
C2070       C  0.61358051  0.85681441  0.89341807    -0.07700
C2071       C  0.61601134  0.88854714  0.91889130     0.62700
H2072       H  0.61520353  0.89908590  0.85629327     0.13400
H2073       H  0.60630672  0.75748666  0.88106943     0.13400
C2074       C  0.60590999  0.76754086  0.81886950     0.62900
F2075       F  0.61828935  0.92612779  0.90674523    -0.22200
F2076       F  0.64339023  0.88216787  0.93741900    -0.19600
F2077       F  0.58850278  0.88766271  0.93701998    -0.19200
F2078       F  0.63308391  0.76842426  0.80025899    -0.19300
F2079       F  0.57808776  0.77341517  0.80089389    -0.19600
F2080       F  0.60414597  0.73008325  0.83134451    -0.22300
C2081       C  0.60171953  0.83990047  0.59267984    -0.05100
C2082       C  0.61744110  0.80341174  0.58744906     0.00800
C2083       C  0.63008947  0.78226118  0.61360216    -0.07800
C2084       C  0.62736324  0.79935540  0.64368714    -0.05100
C2085       C  0.61283623  0.83648053  0.64859721     0.00800
C2086       C  0.59898868  0.85680147  0.62279622    -0.07700
C2087       C  0.58078615  0.89574800  0.62686456     0.62700
H2088       H  0.59169680  0.85551211  0.57278504     0.13400
H2089       H  0.63749499  0.78423135  0.66377659     0.13400
C2090       C  0.64705559  0.74231100  0.61025981     0.62900
F2091       F  0.56425160  0.90637384  0.59976232    -0.22200
F2092       F  0.60243237  0.92561267  0.63454664    -0.19600
F2093       F  0.55818098  0.89254099  0.65027441    -0.19200
F2094       F  0.67303139  0.74522103  0.59029092    -0.19300
F2095       F  0.62526404  0.71445455  0.59872391    -0.19600
F2096       F  0.65912462  0.72881021  0.63858831    -0.22300
C2097       C  0.01400314  0.86433430  0.75248205    -0.05100
C2098       C  0.98335030  0.84619809  0.74895700     0.00800
C2099       C  0.98191079  0.80423219  0.74730225    -0.07800
C2100       C  0.01104394  0.78247278  0.75036555    -0.05100
C2101       C  0.04165243  0.80064550  0.75410960     0.00800
C2102       C  0.04322530  0.84258832  0.75456451    -0.07700
C2103       C  0.07524677  0.86485220  0.75681810     0.62700
H2104       H  0.01506497  0.89627820  0.75347784     0.13400
H2105       H  0.00997987  0.75052008  0.74962572     0.13400
C2106       C  0.95021825  0.78196555  0.74198498     0.62900
F2107       F  0.07076141  0.90541944  0.75575950    -0.22200
F2108       F  0.09468943  0.85410894  0.73196913    -0.19600
F2109       F  0.09106801  0.85640428  0.78473476    -0.19200
F2110       F  0.93557830  0.79379473  0.71429815    -0.19300
F2111       F  0.92959878  0.78937799  0.76660764    -0.19600
F2112       F  0.95501536  0.74142462  0.73985124    -0.22300
C2113       C  0.89794886  0.95513962  0.86262490    -0.05100
C2114       C  0.90910634  0.97950612  0.83868172     0.00800
C2115       C  0.92972142  0.68448495  0.85091517    -0.07800
C2116       C  0.92829311  0.69672227  0.88246927    -0.05100
C2117       C  0.91487324  0.67287676  0.90549758     0.00800
C2118       C  0.89871900  0.96695829  0.89427076    -0.07700
C2119       C  0.88557152  0.93929117  0.91867415     0.62700
H2120       H  0.88825394  0.92636334  0.85636636     0.13400
H2121       H  0.93770305  0.72542129  0.88948453     0.13400
C2122       C  0.94606735  0.71107326  0.82767197     0.62900
F2123       F  0.87268729  0.90512583  0.90534737    -0.22200
F2124       F  0.86114766  0.95807291  0.93522616    -0.19600
F2125       F  0.91037518  0.92817668  0.93897859    -0.19200
F2126       F  0.92315438  0.72536597  0.80664443    -0.19300
F2127       F  0.96978520  0.69001228  0.81185467    -0.19600
F2128       F  0.96096782  0.74322055  0.84221805    -0.22300
C2129       C  0.91607249  0.68697204  0.64967250    -0.05100
C2130       C  0.91223558  0.97627182  0.65099328     0.00800
C2131       C  0.91577798  0.95188715  0.62386349    -0.07800
C2132       C  0.91548669  0.96969297  0.59435660    -0.05100
C2133       C  0.91653052  0.67931542  0.59290357     0.00800
C2134       C  0.91553883  0.70436564  0.61997582    -0.07700
C2135       C  0.91431588  0.74924890  0.61804279     0.62700
H2136       H  0.91394314  0.70553802  0.67040663     0.13400
H2137       H  0.91675877  0.95116724  0.57353531     0.13400
C2138       C  0.92054317  0.90733848  0.62563883     0.62900
F2139       F  0.91829598  0.76732234  0.64711373    -0.22200
F2140       F  0.88454715  0.76126107  0.60587283    -0.19600
F2141       F  0.93906179  0.76228980  0.59932737    -0.19200
F2142       F  0.89184999  0.88964464  0.63411941    -0.19300
F2143       F  0.94484464  0.89867960  0.64728961    -0.19600
F2144       F  0.92966972  0.89097343  0.59720087    -0.22300
C2145       C  0.78238173  0.87840819  0.75360787    -0.05100
C2146       C  0.79521891  0.91373576  0.74240670     0.00800
C2147       C  0.77356976  0.94321931  0.73073209    -0.07800
C2148       C  0.73987863  0.93636418  0.73153539    -0.05100
C2149       C  0.72703297  0.90112015  0.74287813     0.00800
C2150       C  0.74870001  0.87131423  0.75401755    -0.07700
C2151       C  0.73678371  0.83231032  0.76675618     0.62700
H2152       H  0.79914818  0.85618344  0.76228617     0.13400
H2153       H  0.72312894  0.95867328  0.72295570     0.13400
C2154       C  0.78552079  0.98147536  0.71675775     0.62900
F2155       F  0.76197665  0.80963510  0.77893345    -0.22200
F2156       F  0.72198176  0.81036351  0.74300685    -0.19600
F2157       F  0.71494029  0.83941193  0.79048526    -0.19200
F2158       F  0.80812145  0.97316053  0.69393078    -0.19300
F2159       F  0.80693526  0.67846521  0.74472612    -0.19600
F2160       F  0.76638472  0.67676097  0.70928053    -0.22300
loop_ 
_geom_bond_atom_site_label_1 
_geom_bond_atom_site_label_2 
_geom_bond_distance 
_geom_bond_site_symmetry_2 
_ccdc_geom_bond_type 
O1            C4   1.271       .  A
O1           Cd6   2.480       .  S
C2           O11   1.266       .  A
C2            O7   1.269       .  A
C2          C314   1.492       .  S
O3            C9   1.271       .  A
O3           Cd6   2.475       .  S
C4           O12   1.263       .  A
C4          C330   1.488       .  S
C5           O10   1.269       .  A
C5            O8   1.266       .  A
C5          C298   1.493       .  S
Cd6          O13   2.417       .  S
Cd6          O12   2.430       .  S
Cd6          O11   2.426       .  S
Cd6           O7   2.468       .  S
Cd6          O10   2.473       .  S
Cd6           O8   2.415       .  S
C9           O13   1.263       .  A
C9          C346   1.487       .  S
O14          C17   1.271       .  A
O14         Cd19   2.477       .  S
C15          O24   1.265       .  A
C15          O20   1.269       .  A
C15         C266   1.493       .  S
O16          C22   1.271       .  A
O16         Cd19   2.474       .  S
C17          O25   1.265       .  A
C17         C285   1.486       .  S
C18          O23   1.268       .  A
C18          O21   1.266       .  A
C18         C250   1.492       .  S
Cd19         O26   2.418       .  S
Cd19         O25   2.441       .  S
Cd19         O24   2.452       .  S
Cd19         O20   2.471       .  S
Cd19         O23   2.463       .  S
Cd19         O21   2.426       .  S
C22          O26   1.262       .  A
C22         C349   1.488       .  S
O27         C750   1.272       .  A
O27       Cd1112   2.475   1_554  S
C28          O37   1.265       .  A
C28          O33   1.269       .  A
C28         C317   1.484       .  S
O29         C395   1.269       .  A
O29         Cd32   2.470       .  S
C30          O38   1.263       .  A
C30        O1467   1.272       .  A
C30         C333   1.494       .  S
C31          O36   1.271       .  A
C31         O394   1.263       .  A
C31         C221   1.475       .  S
Cd32         O39   2.402       .  S
Cd32         O37   2.433       .  S
Cd32         O33   2.454       .  S
Cd32         O36   2.447       .  S
Cd32       O1827   2.474       .  S
Cd32        O398   2.426       .  S
Cd32        O394   2.408       .  S
O34         C391   1.263       .  A
O34        Cd392   2.408       .  S
C35         O389   1.269       .  A
C35         O399   1.266       .  A
C35         C234   1.488       .  S
O38        Cd392   2.428   1_554  S
O39         C395   1.266       .  A
O40          C43   1.271       .  A
O40        Cd405   2.479   1_554  S
C41          O50   1.266       .  A
C41          O46   1.268       .  A
C41         C269   1.498       .  S
O42         C408   1.268       .  A
O42         Cd45   2.473       .  S
C43          O51   1.262       .  A
C43         C282   1.496       .  S
C44          O49   1.268       .  A
C44         O407   1.266       .  A
C44         C202   1.492       .  S
Cd45         O52   2.426       .  S
Cd45         O50   2.425       .  S
Cd45         O46   2.490       .  S
Cd45         O49   2.479       .  S
Cd45        O400   2.484       .  S
Cd45        O411   2.422       .  S
Cd45        O407   2.408       .  S
O47         C404   1.265       .  A
O47        Cd405   2.409       .  S
C48         O402   1.268       .  A
C48         O412   1.266       .  A
C48         C237   1.492       .  S
O51        Cd405   2.428   1_554  S
O52         C408   1.266       .  A
O53          C56   1.268       .  A
O53         Cd58   2.457       .  S
C54          O63   1.265       .  A
C54          O59   1.268       .  A
C54         C154   1.488       .  S
O55          C61   1.270       .  A
O55         Cd58   2.465       .  S
C56          O64   1.266       .  A
C56         C170   1.489       .  S
C57          O62   1.269       .  A
C57          O60   1.266       .  A
C57         C253   1.493       .  S
Cd58         O65   2.456       .  S
Cd58         O64   2.403       .  S
Cd58         O63   2.398       .  S
Cd58         O59   2.459       .  S
Cd58         O62   2.461       .  S
Cd58         O60   2.426       .  S
C61          O65   1.263       .  A
C61         C189   1.494       .  S
O66         C789   1.271       .  A
O66        Cd791   2.492       .  S
C67          O76   1.267       .  A
C67        O1512   1.268       .  A
C67         C125   1.492       .  S
O68          C74   1.270       .  A
O68         Cd71   2.466       .  S
C69          O77   1.261       .  A
C69        O1506   1.271       .  A
C69         C138   1.488       .  S
C70          O75   1.268       .  A
C70          O73   1.265       .  A
C70         C301   1.492       .  S
Cd71         O78   2.438       .  S
Cd71         O77   2.403       .  S
Cd71         O76   2.437       .  S
Cd71         O75   2.478       .  S
Cd71         O73   2.406       .  S
Cd71       O1506   2.488       .  S
Cd71       O1512   2.470       .  S
O72         C787   1.267       .  A
O72        Cd791   2.467       .  S
C74          O78   1.264       .  A
C74         C186   1.494       .  S
O79          C82   1.267       .  A
O79        Cd444   2.464       .  S
C80          O89   1.265       .  A
C80          O85   1.268       .  A
C80         C157   1.479       .  S
O81         C447   1.271       .  A
O81         Cd84   2.484       .  S
C82          O90   1.266       .  A
C82         C173   1.485       .  S
C83         O448   1.269       .  A
C83         O446   1.265       .  A
C83         C205   1.489       .  S
Cd84         O91   2.426       .  S
Cd84         O89   2.411       .  S
Cd84         O85   2.446       .  S
Cd84        O439   2.468       .  S
Cd84        O450   2.418       .  S
Cd84        O448   2.455       .  S
Cd84        O446   2.414       .  S
O86         C443   1.265   1_556  A
O86        Cd444   2.415   1_556  S
C87         O441   1.270   1_554  A
C87         O451   1.263       .  A
C87         C109   1.492       .  S
O88         C443   1.268       .  A
O88        Cd444   2.459       .  S
O90        Cd444   2.419       .  S
O91         C447   1.263       .  A
O92          C95   1.271       .  A
O92        Cd457   2.464       .  S
C93         O102   1.266       .  A
C93          O98   1.270       .  A
C93         C122   1.492       .  S
O94         C460   1.271       .  A
O94         Cd97   2.461       .  S
C95         O103   1.263       .  A
C95         C141   1.493       .  S
C96         O461   1.272       .  A
C96         O459   1.262       .  A
C96         C218   1.476       .  S
Cd97        O104   2.439       .  S
Cd97        O102   2.410       .  S
Cd97         O98   2.465       .  S
Cd97        O452   2.463       .  S
Cd97        O463   2.426       .  S
Cd97        O461   2.467       .  S
Cd97        O459   2.395       .  S
O99         C456   1.262       .  A
O99        Cd457   2.399       .  S
C100        O454   1.271       .  A
C100        O464   1.265       .  A
C100        C106   1.490       .  S
O101        C456   1.272       .  A
O101       Cd457   2.469       .  S
O103       Cd457   2.428       .  S
O104        C460   1.265       .  A
C105        C110   1.406       .  A
C105        C466   1.403       .  A
C105        H112   1.082       .  S
C106        C107   1.423   1_554  A
C106        C465   1.403       .  A
C107        C108   1.410       .  A
C107        C114   1.521       .  S
C108        C109   1.406   1_556  A
C108        H113   1.083       .  S
C109        C470   1.424       .  A
C110        C469   1.424       .  A
C110        C111   1.522       .  S
C111        F115   1.385       .  S
C111        F117   1.383       .  S
C111        F476   1.383       .  S
C114        F118   1.383       .  S
C114        F839   1.384       .  S
C114        F840   1.385       .  S
F116        C471   1.384       .  S
F119       C1554   1.384       .  S
F120       C1554   1.385   1_545  S
C121        C122   1.408       .  A
C121        C126   1.406       .  A
C121        H128   1.082       .  S
C122        C843   1.420       .  A
C123        C124   1.408       .  A
C123       C1562   1.419   1_545  A
C123        C130   1.521       .  S
C124        C125   1.408       .  A
C124        H129   1.082       .  S
C125       C1566   1.420   1_545  A
C126        C845   1.420       .  A
C126        C127   1.521       .  S
C127        F131   1.385       .  S
C127        F132   1.383       .  S
C127        F133   1.383       .  S
C130        F134   1.383       .  S
C130        F136   1.384       .  S
C130       F1575   1.384       .  S
F135        C850   1.384       .  S
C137        C142   1.409       .  A
C137        C858   1.403       .  A
C137        H144   1.083       .  S
C138        C139   1.424       .  A
C138       C1577   1.403   1_545  A
C139       C1580   1.405       .  A
C139        C146   1.523       .  S
C140        C141   1.404       .  A
C140        C859   1.404       .  A
C140        H145   1.082       .  S
C141        C142   1.427       .  A
C142        C143   1.522       .  S
C143        F147   1.385       .  S
C143        F148   1.383       .  S
C143        F149   1.384       .  S
C146        F150   1.383       .  S
C146        F151   1.384       .  S
C146        F152   1.385       .  S
C153        C154   1.409       .  A
C153        C158   1.402       .  A
C153        H160   1.082       .  S
C154        C155   1.422       .  A
C155        C156   1.406       .  A
C155        C162   1.520       .  S
C156        C157   1.405       .  A
C156        H161   1.083       .  S
C157        C158   1.415       .  A
C158        C159   1.520       .  S
C159        F163   1.385       .  S
C159        F164   1.384       .  S
C159        F165   1.381       .  S
C162        F166   1.383       .  S
C162        F167   1.383       .  S
C162        F168   1.385       .  S
C169        C170   1.408       .  A
C169        C174   1.404       .  A
C169        H176   1.082       .  S
C170        C171   1.420       .  A
C171        C172   1.406       .  A
C171        C178   1.519       .  S
C172        C173   1.406       .  A
C172        H177   1.083       .  S
C173        C174   1.418       .  A
C174        C175   1.519       .  S
C175        F179   1.385       .  S
C175        F180   1.383       .  S
C175        F181   1.383       .  S
C178        F182   1.384       .  S
C178        F183   1.383       .  S
C178        F184   1.385       .  S
C185        C186   1.406       .  A
C185        C190   1.409       .  A
C185        H192   1.082       .  S
C186        C187   1.424       .  A
C187        C188   1.407       .  A
C187       C1634   1.522       .  S
C188        C189   1.404       .  A
C188        H193   1.082       .  S
C189        C190   1.425       .  A
C190        C191   1.522       .  S
C191        F195   1.385       .  S
C191        F196   1.383       .  S
C191        F197   1.383       .  S
C194        C907   1.522       .  S
C194        F198   1.384       .  S
C194        F199   1.383       .  S
C194        F200   1.385       .  S
C201        C206   1.404       .  A
C201        C562   1.408       .  A
C201        H208   1.082       .  S
C202        C561   1.408       .  A
C202       C1643   1.421   1_545  A
C203        C204   1.406       .  A
C203        C922   1.421       .  A
C203        C210   1.522       .  S
C204        C205   1.408       .  A
C204        H209   1.082       .  S
C205       C1286   1.418       .  A
C206       C2005   1.419   1_546  A
C206        C207   1.520       .  S
C207        F211   1.383       .  S
C207        F212   1.383   1_556  S
C207        F573   1.383       .  S
C210        F215   1.383       .  S
C210        F216   1.385       .  S
C210        F574   1.384       .  S
F213        C567   1.383       .  S
F214        C570   1.384       .  S
C217        C218   1.402       .  A
C217        C222   1.405       .  A
C217        H584   1.083       .  S
C218        C219   1.421       .  A
C219        C220   1.402   1_455  A
C219        C226   1.522       .  S
C220        C221   1.400       .  A
C220        H225   1.083       .  S
C221        C222   1.421   1_655  A
C222        C223   1.521       .  S
C223        F227   1.385       .  S
C223        F228   1.383       .  S
C223        F589   1.384   1_455  S
H224        C577   1.083       .  S
C226        F230   1.384       .  S
C226        F591   1.383       .  S
C226        F592   1.385   1_455  S
F229        C583   1.383   1_655  S
F231        C586   1.383       .  S
F232        C586   1.385   1_655  S
C233        C238   1.405       .  A
C233        C594   1.407       .  A
C233        H240   1.082       .  S
C234        C235   1.418       .  A
C234        C593   1.407       .  A
C235        C236   1.406       .  A
C235        C242   1.521   1_556  S
C236        C237   1.409       .  A
C236        H241   1.082   1_556  S
C237        C598   1.421       .  A
C238        C597   1.421       .  A
C238        C239   1.521       .  S
C239        F244   1.383       .  S
C239       F1683   1.385   1_545  S
C239       F1685   1.383   1_545  S
C242        F246   1.383   1_554  S
C242        F247   1.383       .  S
C242        F248   1.385       .  S
F243        C959   1.385       .  S
F245        C959   1.383       .  S
C249        C250   1.409       .  A
C249        C254   1.406       .  A
C249        H256   1.082       .  S
C250        C971   1.421       .  A
C251        C252   1.408       .  A
C251       C1690   1.420   1_545  A
C251        C258   1.521       .  S
C252        C253   1.410       .  A
C252        H257   1.082       .  S
C253       C1694   1.420   1_545  A
C254        C973   1.420       .  A
C254        C255   1.521       .  S
C255        F259   1.384       .  S
C255        F261   1.383       .  S
C255        F980   1.382       .  S
C258        F262   1.383       .  S
C258        F264   1.385       .  S
C258       F1703   1.383       .  S
F260       C1695   1.383       .  S
F263        C978   1.383       .  S
C265        C266   1.408       .  A
C265        C270   1.412       .  A
C265        H272   1.082       .  S
C266        C267   1.418       .  A
C267        C268   1.405       .  A
C267        C274   1.519       .  S
C268        C269   1.408       .  A
C268        H273   1.082       .  S
C269        C270   1.423       .  A
C270        C271   1.521       .  S
C271        F275   1.385       .  S
C271        F276   1.383       .  S
C271        F277   1.383       .  S
C274        F278   1.384       .  S
C274        F279   1.382       .  S
C274        F280   1.385       .  S
C281        C282   1.406       .  A
C281        C286   1.406       .  A
C281        H288   1.083       .  S
C282        C283   1.428       .  A
C283        C284   1.409       .  A
C283        C290   1.523       .  S
C284        C285   1.402       .  A
C284        H289   1.083       .  S
C285        C286   1.419       .  A
C286        C287   1.520       .  S
C287        F291   1.385       .  S
C287        F292   1.382       .  S
C287        F293   1.384       .  S
C290        F294   1.383       .  S
C290        F295   1.384       .  S
C290        F296   1.385       .  S
C297        C298   1.410   1_455  A
C297        C302   1.407       .  A
C297        H304   1.082       .  S
C298        C299   1.420       .  A
C299        C300   1.405   1_655  A
C299        C306   1.521       .  S
C300        C301   1.409       .  A
C300        H305   1.081       .  S
C301        C302   1.420       .  A
C302        C303   1.522       .  S
C303        F307   1.385       .  S
C303        F308   1.383       .  S
C303        F309   1.382       .  S
C306        F310   1.383       .  S
C306        F311   1.382       .  S
C306        F312   1.385       .  S
C313        C314   1.409       .  A
C313        C318   1.406       .  A
C313        H320   1.082       .  S
C314       C1035   1.421       .  A
C315        C316   1.409       .  A
C315       C1754   1.422   1_545  A
C315        C322   1.520       .  S
C316        C317   1.406       .  A
C316        H321   1.083       .  S
C317       C1758   1.416   1_545  A
C318       C1037   1.417       .  A
C318        C319   1.521       .  S
C319        F323   1.384       .  S
C319        F324   1.384       .  S
C319        F325   1.383       .  S
C322        F326   1.383       .  S
C322        F327   1.383       .  S
C322        F328   1.385       .  S
C329        C334   1.409       .  A
C329       C1770   1.403   1_545  A
C329        H336   1.083       .  S
C330        C331   1.421       .  A
C330       C1049   1.403       .  A
C331        C332   1.406       .  A
C331        C338   1.521       .  S
C332       C1053   1.405       .  A
C332        H337   1.082       .  S
C333        C334   1.426       .  A
C333       C1772   1.405   1_545  A
C334        C335   1.522       .  S
C335        F339   1.385       .  S
C335        F340   1.383       .  S
C335        F341   1.383       .  S
C338        F342   1.382       .  S
C338        F343   1.384       .  S
C338        F344   1.385       .  S
C345        C346   1.403       .  A
C345        C350   1.407       .  A
C345        H352   1.082       .  S
C346        C347   1.423       .  A
C347        C348   1.406       .  A
C347        C354   1.522       .  S
C348        C349   1.403       .  A
C348        H353   1.082       .  S
C349        C350   1.424       .  A
C350        C351   1.522       .  S
C351        F355   1.385       .  S
C351        F356   1.383       .  S
C351        F357   1.384       .  S
C354        F358   1.384       .  S
C354       F1079   1.383       .  S
C354       F1080   1.385       .  S
F359       C1794   1.383   1_545  S
F360       C1794   1.385   1_545  S
O361        C364   1.271       .  A
O361       Cd366   2.480       .  S
C362        O371   1.266       .  A
C362        O367   1.269       .  A
C362        C674   1.492       .  S
O363        C369   1.271       .  A
O363       Cd366   2.472       .  S
C364        O372   1.263       .  A
C364        C690   1.488       .  S
C365        O370   1.269       .  A
C365        O368   1.266       .  A
C365        C658   1.494       .  S
Cd366       O373   2.417       .  S
Cd366       O372   2.430       .  S
Cd366       O371   2.425       .  S
Cd366       O367   2.470       .  S
Cd366       O370   2.476       .  S
Cd366       O368   2.414       .  S
C369        O373   1.262       .  A
C369        C706   1.487       .  S
O374        C377   1.271       .  A
O374       Cd379   2.473       .  S
C375        O384   1.265       .  A
C375        O380   1.268       .  A
C375        C626   1.493       .  S
O376        C382   1.271       .  A
O376       Cd379   2.474       .  S
C377        O385   1.265       .  A
C377        C645   1.485       .  S
C378        O383   1.268       .  A
C378        O381   1.266       .  A
C378        C610   1.491       .  S
Cd379       O386   2.417       .  S
Cd379       O385   2.443       .  S
Cd379       O384   2.450       .  S
Cd379       O380   2.475       .  S
Cd379       O383   2.462       .  S
Cd379       O381   2.426       .  S
C382        O386   1.262       .  A
C382        C709   1.488       .  S
O387       C1110   1.272       .  A
O387       Cd752   2.475       .  S
C388        O397   1.265       .  A
C388        O393   1.269       .  A
C388        C677   1.484       .  S
O389       Cd392   2.467       .  S
C390       O1827   1.272       .  A
C390        O398   1.263       .  A
C390        C693   1.493       .  S
C391        O396   1.271       .  A
C391        C581   1.477   1_556  S
Cd392      O1467   2.476   1_556  S
Cd392       O399   2.409       .  S
Cd392       O397   2.432       .  S
Cd392       O393   2.457       .  S
Cd392       O396   2.453       .  S
C395        C594   1.487       .  S
O400        C403   1.271       .  A
C401        O410   1.266       .  A
C401        O406   1.268       .  A
C401        C629   1.499       .  S
O402       Cd405   2.474       .  S
C403        O411   1.261       .  A
C403        C642   1.496       .  S
C404        O409   1.268       .  A
C404        C562   1.492       .  S
Cd405       O412   2.425       .  S
Cd405       O410   2.435       .  S
Cd405       O406   2.489       .  S
Cd405       O409   2.478       .  S
C408        C597   1.492       .  S
O413        C416   1.268       .  A
O413       Cd418   2.457       .  S
C414        O423   1.265       .  A
C414        O419   1.268       .  A
C414        C514   1.488       .  S
O415        C421   1.270       .  A
O415       Cd418   2.460       .  S
C416        O424   1.266       .  A
C416        C530   1.489       .  S
C417        O422   1.269       .  A
C417        O420   1.266       .  A
C417        C613   1.492       .  S
Cd418       O425   2.458       .  S
Cd418       O424   2.403       .  S
Cd418       O423   2.399       .  S
Cd418       O419   2.454       .  S
Cd418       O422   2.460       .  S
Cd418       O420   2.421       .  S
C421        O425   1.263       .  A
C421        C549   1.495       .  S
O426       C1149   1.271       .  A
O426      Cd1151   2.491       .  S
C427        O436   1.267       .  A
C427       O1872   1.268       .  A
C427        C485   1.493       .  S
O428        C434   1.271       .  A
O428       Cd431   2.469       .  S
C429       O1866   1.271       .  A
C429        O437   1.261       .  A
C429        C498   1.487       .  S
C430        O435   1.268       .  A
C430        O433   1.264       .  A
C430        C661   1.492       .  S
Cd431      O1866   2.484       .  S
Cd431       O438   2.436       .  S
Cd431       O437   2.405       .  S
Cd431       O436   2.439       .  S
Cd431      O1872   2.468       .  S
Cd431       O435   2.479       .  S
Cd431       O433   2.407       .  S
O432       C1147   1.267       .  A
O432      Cd1151   2.467       .  S
C434        O438   1.264       .  A
C434        C546   1.494       .  S
O439        C442   1.268       .  A
C440        O449   1.265       .  A
C440        O445   1.268       .  A
C440        C517   1.481       .  S
O441       Cd444   2.486   1_556  S
C442        O450   1.266       .  A
C442        C533   1.486       .  S
C443        C565   1.490       .  S
Cd444       O451   2.429       .  S
Cd444       O449   2.404   1_554  S
Cd444       O445   2.454   1_554  S
C447        C469   1.491       .  S
O452        C455   1.272       .  A
C453        O462   1.266       .  A
C453        O458   1.270       .  A
C453        C482   1.491       .  S
O454       Cd457   2.466       .  S
C455        O463   1.263       .  A
C455        C501   1.492       .  S
C456        C578   1.477       .  S
Cd457       O464   2.442       .  S
Cd457       O462   2.411   1_554  S
Cd457       O458   2.465   1_554  S
C460        C466   1.489       .  S
C465        C470   1.407       .  A
C465        H472   1.082       .  S
C466        C467   1.423       .  A
C467        C468   1.409       .  A
C467        C474   1.521       .  S
C468        C469   1.405       .  A
C468        H473   1.083       .  S
C470        C471   1.522       .  S
C471        F475   1.385       .  S
C471        F477   1.383   1_554  S
C474        F478   1.383       .  S
C474       F1199   1.384       .  S
C474       F1200   1.385       .  S
F479       C1914   1.384       .  S
F480       C1914   1.385   1_545  S
C481        C482   1.408       .  A
C481        C486   1.406       .  A
C481        H488   1.082       .  S
C482       C1203   1.419       .  A
C483       C1922   1.420   1_545  A
C483        C484   1.408       .  A
C483        C490   1.521       .  S
C484        C485   1.408       .  A
C484        H489   1.082       .  S
C485       C1926   1.420   1_545  A
C486       C1205   1.421       .  A
C486        C487   1.521       .  S
C487        F491   1.385       .  S
C487        F492   1.383       .  S
C487        F493   1.383       .  S
C490        F494   1.383       .  S
C490       F1935   1.384       .  S
C490        F496   1.384       .  S
F495       C1210   1.384       .  S
C497       C1218   1.403       .  A
C497        C502   1.409       .  A
C497        H504   1.083       .  S
C498       C1937   1.403   1_545  A
C498        C499   1.423       .  A
C499       C1940   1.405       .  A
C499        C506   1.523       .  S
C500       C1219   1.404       .  A
C500        C501   1.404       .  A
C500        H505   1.082       .  S
C501        C502   1.426       .  A
C502        C503   1.522       .  S
C503        F507   1.385       .  S
C503        F508   1.383       .  S
C503        F509   1.384       .  S
C506        F510   1.383       .  S
C506        F511   1.384       .  S
C506        F512   1.385       .  S
C513        C514   1.408       .  A
C513        C518   1.402       .  A
C513        H520   1.082       .  S
C514        C515   1.421       .  A
C515        C516   1.404       .  A
C515        C522   1.520       .  S
C516        C517   1.405       .  A
C516        H521   1.082       .  S
C517        C518   1.416       .  A
C518        C519   1.519       .  S
C519        F523   1.385       .  S
C519        F524   1.384       .  S
C519        F525   1.380       .  S
C522        F526   1.383       .  S
C522        F527   1.383       .  S
C522        F528   1.385       .  S
C529        C530   1.408       .  A
C529        C534   1.404       .  A
C529        H536   1.082       .  S
C530        C531   1.420       .  A
C531        C532   1.406       .  A
C531        C538   1.520       .  S
C532        C533   1.407       .  A
C532        H537   1.083       .  S
C533        C534   1.418       .  A
C534        C535   1.519       .  S
C535        F539   1.385       .  S
C535        F540   1.383       .  S
C535        F541   1.383       .  S
C538        F542   1.384       .  S
C538        F543   1.383       .  S
C538        F544   1.385       .  S
C545        C546   1.406       .  A
C545        C550   1.409       .  A
C545        H552   1.082       .  S
C546        C547   1.424       .  A
C547        C548   1.406       .  A
C547       C1994   1.522       .  S
C548        C549   1.404       .  A
C548        H553   1.082       .  S
C549        C550   1.425       .  A
C550        C551   1.522       .  S
C551        F555   1.386       .  S
C551        F556   1.383       .  S
C551        F557   1.383       .  S
C554       C1267   1.522       .  S
C554        F558   1.384       .  S
C554        F559   1.383       .  S
C554        F560   1.385       .  S
C561        C566   1.404       .  A
C561        H568   1.082       .  S
C562       C2003   1.421   1_546  A
C563       C1282   1.420   1_554  A
C563        C564   1.406       .  A
C563        C570   1.522       .  S
C564        C565   1.409       .  A
C564        H569   1.082       .  S
C565        C926   1.419   1_554  A
C566       C1645   1.419   1_545  A
C566        C567   1.520       .  S
C567        F571   1.384       .  S
C567        F572   1.383       .  S
C570        F575   1.383   1_554  S
C570        F576   1.385       .  S
C577        C578   1.402       .  A
C577        C582   1.405       .  A
C578        C579   1.422   1_554  A
C579        C580   1.403   1_455  A
C579        C586   1.522       .  S
C580        C581   1.401   1_556  A
C580        H585   1.083       .  S
C581        C582   1.421   1_655  A
C582        C583   1.521       .  S
C583        F587   1.385       .  S
C583        F588   1.383       .  S
C586        F590   1.384       .  S
C593        C598   1.406       .  A
C593        H600   1.082       .  S
C594        C595   1.418       .  A
C595        C596   1.407       .  A
C595        C602   1.521       .  S
C596        C597   1.410       .  A
C596        H601   1.082       .  S
C598        C599   1.521       .  S
C599       F2043   1.385   1_545  S
C599        F604   1.383       .  S
C599       F2045   1.383   1_545  S
C602        F606   1.383       .  S
C602        F607   1.383       .  S
C602        F608   1.385       .  S
F603       C1319   1.385       .  S
F605       C1319   1.383   1_554  S
C609        C610   1.408       .  A
C609        C614   1.406       .  A
C609        H616   1.082       .  S
C610       C1331   1.420       .  A
C611       C2050   1.421   1_545  A
C611        C612   1.407       .  A
C611        C618   1.522       .  S
C612        C613   1.409       .  A
C612        H617   1.082       .  S
C613       C2054   1.420   1_545  A
C614       C1333   1.420       .  A
C614        C615   1.521       .  S
C615        F619   1.384       .  S
C615       F1340   1.382       .  S
C615        F621   1.383       .  S
C618        F622   1.383       .  S
C618       F2063   1.383       .  S
C618        F624   1.385       .  S
F620       C2055   1.383       .  S
F623       C1338   1.383       .  S
C625        C626   1.408       .  A
C625        C630   1.411       .  A
C625        H632   1.082       .  S
C626        C627   1.418       .  A
C627        C628   1.407       .  A
C627        C634   1.520       .  S
C628        C629   1.409       .  A
C628        H633   1.082       .  S
C629        C630   1.423       .  A
C630        C631   1.521       .  S
C631        F635   1.385       .  S
C631        F636   1.383       .  S
C631        F637   1.384       .  S
C634        F638   1.384       .  S
C634        F639   1.382       .  S
C634        F640   1.385       .  S
C641        C642   1.407       .  A
C641        C646   1.407       .  A
C641        H648   1.083       .  S
C642        C643   1.428       .  A
C643        C644   1.408       .  A
C643        C650   1.523       .  S
C644        C645   1.401       .  A
C644        H649   1.083       .  S
C645        C646   1.419       .  A
C646        C647   1.520       .  S
C647        F651   1.385       .  S
C647        F652   1.382       .  S
C647        F653   1.384       .  S
C650        F654   1.383       .  S
C650        F655   1.384       .  S
C650        F656   1.385       .  S
C657        C658   1.410   1_455  A
C657        C662   1.406       .  A
C657        H664   1.082       .  S
C658        C659   1.421       .  A
C659        C660   1.405   1_655  A
C659        C666   1.521       .  S
C660        C661   1.409       .  A
C660        H665   1.082       .  S
C661        C662   1.420       .  A
C662        C663   1.522       .  S
C663        F667   1.385       .  S
C663        F668   1.383       .  S
C663        F669   1.382       .  S
C666        F670   1.383       .  S
C666        F671   1.383       .  S
C666        F672   1.385       .  S
C673        C674   1.409       .  A
C673        C678   1.406       .  A
C673        H680   1.082       .  S
C674       C1395   1.421       .  A
C675       C2114   1.422   1_545  A
C675        C676   1.409       .  A
C675        C682   1.520       .  S
C676        C677   1.406       .  A
C676        H681   1.083       .  S
C677       C2118   1.416   1_545  A
C678       C1397   1.417       .  A
C678        C679   1.521       .  S
C679        F683   1.384       .  S
C679        F684   1.384       .  S
C679        F685   1.383       .  S
C682        F686   1.383       .  S
C682        F687   1.384       .  S
C682        F688   1.385       .  S
C689       C2130   1.404   1_545  A
C689        C694   1.409       .  A
C689        H696   1.083       .  S
C690       C1409   1.403       .  A
C690        C691   1.421       .  A
C691        C692   1.406       .  A
C691        C698   1.521       .  S
C692       C1413   1.405       .  A
C692        H697   1.082       .  S
C693       C2132   1.405   1_545  A
C693        C694   1.426       .  A
C694        C695   1.522       .  S
C695        F699   1.385       .  S
C695        F700   1.383       .  S
C695        F701   1.384       .  S
C698        F702   1.382       .  S
C698        F703   1.384       .  S
C698        F704   1.385       .  S
C705        C706   1.403       .  A
C705        C710   1.407       .  A
C705        H712   1.082       .  S
C706        C707   1.423       .  A
C707        C708   1.406       .  A
C707        C714   1.522       .  S
C708        C709   1.403       .  A
C708        H713   1.082       .  S
C709        C710   1.424       .  A
C710        C711   1.522       .  S
C711        F715   1.385       .  S
C711        F716   1.383       .  S
C711        F717   1.384       .  S
C714        F718   1.384       .  S
C714       F1439   1.383       .  S
C714       F1440   1.385       .  S
F719       C2154   1.383   1_545  S
F720       C2154   1.385   1_545  S
O721        C724   1.271       .  A
O721       Cd726   2.484       .  S
C722        O731   1.265       .  A
C722        O727   1.269       .  A
C722       C1034   1.493       .  S
O723        C729   1.271       .  A
O723       Cd726   2.472       .  S
C724        O732   1.263       .  A
C724       C1050   1.489       .  S
C725        O730   1.268       .  A
C725        O728   1.266       .  A
C725       C1018   1.495       .  S
Cd726       O733   2.433       .  S
Cd726       O732   2.428       .  S
Cd726       O731   2.422       .  S
Cd726       O727   2.479       .  S
Cd726       O730   2.479       .  S
Cd726       O728   2.425       .  S
C729        O733   1.263       .  A
C729       C1066   1.489       .  S
O734        C737   1.271       .  A
O734       Cd739   2.472       .  S
C735        O744   1.265       .  A
C735        O740   1.268       .  A
C735        C986   1.491       .  S
O736        C742   1.271       .  A
O736       Cd739   2.486       .  S
C737        O745   1.264       .  A
C737       C1005   1.485       .  S
C738        O743   1.269       .  A
C738        O741   1.265       .  A
C738        C970   1.491       .  S
Cd739       O746   2.422       .  S
Cd739       O745   2.434       .  S
Cd739       O744   2.450       .  S
Cd739       O740   2.468       .  S
Cd739       O743   2.472       .  S
Cd739       O741   2.419       .  S
C742        O746   1.262       .  A
C742       C1069   1.490       .  S
O747       C1470   1.271       .  A
O747      Cd1832   2.479   1_554  S
C748        O757   1.265       .  A
C748        O753   1.269       .  A
C748       C1037   1.485       .  S
O749       C1115   1.269       .  A
O749       Cd752   2.479       .  S
C750        O758   1.262       .  A
C750       C1053   1.493       .  S
C751        O756   1.271       .  A
C751       O1114   1.263       .  A
C751        C941   1.477       .  S
Cd752       O759   2.408       .  S
Cd752      O1118   2.414       .  S
Cd752       O757   2.432       .  S
Cd752       O753   2.455       .  S
Cd752       O756   2.444       .  S
Cd752      O1114   2.416       .  S
O754       C1111   1.263       .  A
O754      Cd1112   2.414       .  S
C755       O1109   1.269       .  A
C755       O1119   1.266       .  A
C755        C954   1.491       .  S
O758      Cd1112   2.418   1_554  S
O759       C1115   1.266       .  A
O760        C763   1.272       .  A
O760      Cd1125   2.485   1_554  S
C761        O770   1.265       .  A
C761        O766   1.269       .  A
C761        C989   1.498       .  S
O762       C1128   1.268       .  A
O762       Cd765   2.466       .  S
C763        O771   1.261       .  A
C763       C1002   1.494       .  S
C764        O769   1.267       .  A
C764       O1127   1.266       .  A
C764        C922   1.490       .  S
Cd765      O1120   2.485       .  S
Cd765       O772   2.432       .  S
Cd765      O1131   2.420       .  S
Cd765       O770   2.428       .  S
Cd765       O766   2.485       .  S
Cd765       O769   2.464       .  S
Cd765      O1127   2.419       .  S
O767       C1124   1.266   1_554  A
O767      Cd1125   2.417   1_554  S
C768       O1122   1.268       .  A
C768       O1132   1.266       .  A
C768        C957   1.492       .  S
O771      Cd1125   2.417   1_554  S
O772       C1128   1.266       .  A
O773        C776   1.268       .  A
O773       Cd778   2.467       .  S
C774        O783   1.265       .  A
C774        O779   1.268       .  A
C774        C874   1.490       .  S
O775        C781   1.270       .  A
O775       Cd778   2.459       .  S
C776        O784   1.266       .  A
C776        C890   1.492       .  S
C777        O782   1.268       .  A
C777        O780   1.265       .  A
C777        C973   1.491       .  S
Cd778       O785   2.452       .  S
Cd778       O784   2.414       .  S
Cd778       O783   2.408       .  S
Cd778       O779   2.456       .  S
Cd778       O782   2.459       .  S
Cd778       O780   2.421       .  S
C781        O785   1.264       .  A
C781        C909   1.494       .  S
O786       C1509   1.271       .  A
O786      Cd1511   2.482       .  S
C787        O796   1.266       .  A
C787        C845   1.493       .  S
O788        C794   1.269       .  A
O788       Cd791   2.463       .  S
C789        O797   1.261       .  A
C789        C858   1.486       .  S
C790        O795   1.267       .  A
C790        O793   1.265       .  A
C790       C1021   1.492       .  S
Cd791       O798   2.439       .  S
Cd791       O797   2.407       .  S
Cd791       O796   2.446       .  S
Cd791       O795   2.468       .  S
Cd791       O793   2.420       .  S
O792       C1507   1.268       .  A
O792      Cd1511   2.469       .  S
C794        O798   1.264       .  A
C794        C906   1.491       .  S
O799        C802   1.267       .  A
O799      Cd1164   2.462   1_554  S
C800        O809   1.266       .  A
C800        O805   1.268       .  A
C800        C877   1.483       .  S
O801       C1167   1.271       .  A
O801       Cd804   2.483       .  S
C802        O810   1.266       .  A
C802        C893   1.489       .  S
C803       O1168   1.270       .  A
C803       O1166   1.265       .  A
C803        C925   1.482       .  S
Cd804      O1159   2.458       .  S
Cd804       O811   2.424       .  S
Cd804      O1170   2.434       .  S
Cd804       O809   2.420       .  S
Cd804       O805   2.456       .  S
Cd804      O1168   2.471       .  S
Cd804      O1166   2.405       .  S
O806       C1163   1.265       .  A
O806      Cd1164   2.408       .  S
C807       O1161   1.271       .  A
C807       O1171   1.262       .  A
C807        C829   1.491       .  S
O808       C1163   1.269   1_554  A
O808      Cd1164   2.469   1_554  S
O810      Cd1164   2.433   1_554  S
O811       C1167   1.262       .  A
O812        C815   1.271       .  A
O812      Cd1177   2.465       .  S
C813        O822   1.266       .  A
C813        O818   1.269       .  A
C813        C842   1.492       .  S
O814       C1180   1.271       .  A
O814       Cd817   2.466       .  S
C815        O823   1.263       .  A
C815        C861   1.488       .  S
C816       O1181   1.271       .  A
C816       O1179   1.263       .  A
C816        C938   1.475       .  S
Cd817      O1172   2.463       .  S
Cd817       O824   2.434       .  S
Cd817      O1183   2.418       .  S
Cd817       O822   2.422       .  S
Cd817       O818   2.461       .  S
Cd817      O1181   2.462       .  S
Cd817      O1179   2.392       .  S
O819       C1176   1.263       .  A
O819      Cd1177   2.393       .  S
C820       O1174   1.271       .  A
C820       O1184   1.264       .  A
C820        C826   1.490       .  S
O821       C1176   1.272       .  A
O821      Cd1177   2.464       .  S
O823      Cd1177   2.421       .  S
O824       C1180   1.264       .  A
C825       C1186   1.403       .  A
C825        C830   1.407       .  A
C825        H832   1.082       .  S
C826       C1185   1.403       .  A
C826        C827   1.423   1_554  A
C827        C828   1.409       .  A
C827        C834   1.521       .  S
C828        C829   1.405   1_556  A
C828        H833   1.083       .  S
C829       C1190   1.424       .  A
C830       C1189   1.424       .  A
C830        C831   1.522       .  S
C831        F835   1.385       .  S
C831       F1196   1.384       .  S
C831        F837   1.383       .  S
C834        F838   1.383   1_556  S
C834       F1559   1.384       .  S
C834       F1560   1.385       .  S
F836       C1191   1.384       .  S
C841        C842   1.409       .  A
C841        C846   1.407       .  A
C841        H848   1.082       .  S
C842       C1563   1.420       .  A
C843        C844   1.409       .  A
C843        C850   1.521       .  S
C844        C845   1.409       .  A
C844        H849   1.082       .  S
C846       C1565   1.419       .  A
C846        C847   1.521       .  S
C847        F851   1.385       .  S
C847        F852   1.383       .  S
C847        F853   1.383       .  S
C850        F854   1.383       .  S
C850        F856   1.384       .  S
F855       C1570   1.384       .  S
C857       C1578   1.405       .  A
C857        C862   1.407       .  A
C857        H864   1.082       .  S
C858        C859   1.422       .  A
C859        C866   1.523       .  S
C860       C1579   1.406       .  A
C860        C861   1.402       .  A
C860        H865   1.082       .  S
C861        C862   1.423       .  A
C862        C863   1.522       .  S
C863        F867   1.385       .  S
C863        F868   1.383       .  S
C863        F869   1.384       .  S
C866        F870   1.383       .  S
C866        F871   1.384       .  S
C866        F872   1.385       .  S
C873        C874   1.409       .  A
C873        C878   1.403       .  A
C873        H880   1.082       .  S
C874        C875   1.421       .  A
C875        C876   1.406       .  A
C875        C882   1.519       .  S
C876        C877   1.404       .  A
C876        H881   1.083       .  S
C877        C878   1.416       .  A
C878        C879   1.518       .  S
C879        F883   1.385       .  S
C879        F884   1.384       .  S
C879        F885   1.380       .  S
C882        F886   1.384       .  S
C882        F887   1.382       .  S
C882        F888   1.385       .  S
C889        C890   1.408       .  A
C889        C894   1.404       .  A
C889        H896   1.082       .  S
C890        C891   1.421       .  A
C891        C892   1.408       .  A
C891        C898   1.520       .  S
C892        C893   1.407       .  A
C892        H897   1.083       .  S
C893        C894   1.419       .  A
C894        C895   1.520       .  S
C895        F899   1.385       .  S
C895        F900   1.382       .  S
C895        F901   1.383       .  S
C898        F902   1.384       .  S
C898        F903   1.383       .  S
C898        F904   1.385       .  S
C905        C906   1.405       .  A
C905        C910   1.408       .  A
C905        H912   1.082       .  S
C906        C907   1.423       .  A
C907        C908   1.406       .  A
C908        C909   1.405       .  A
C908        H913   1.082       .  S
C909        C910   1.425       .  A
C910        C911   1.522       .  S
C911        F915   1.385       .  S
C911        F916   1.383       .  S
C911        F917   1.383       .  S
C914       C1627   1.522       .  S
C914        F918   1.384       .  S
C914        F919   1.383       .  S
C914        F920   1.385       .  S
C921       C1282   1.408       .  A
C921        C926   1.405       .  A
C921        H928   1.082       .  S
C922       C1281   1.408       .  A
C923       C1642   1.419       .  A
C923        C924   1.405       .  A
C923        C930   1.520       .  S
C924        C925   1.406       .  A
C924        H929   1.083       .  S
C925       C2006   1.416       .  A
C926        C927   1.520       .  S
C927        F931   1.383       .  S
C927        F932   1.383   1_556  S
C927       F1293   1.384       .  S
C930       F1294   1.383       .  S
C930        F935   1.382       .  S
C930        F936   1.385       .  S
F933       C1287   1.384       .  S
F934       C1290   1.383       .  S
C937        C938   1.402       .  A
C937        C942   1.406       .  A
C937       H1304   1.083       .  S
C938        C939   1.420       .  A
C939        C940   1.401   1_455  A
C939        C946   1.522       .  S
C940        C941   1.401       .  A
C940        H945   1.083       .  S
C941        C942   1.422   1_655  A
C942        C943   1.521       .  S
C943        F947   1.385       .  S
C943        F948   1.383       .  S
C943       F1309   1.384   1_455  S
H944       C1297   1.083       .  S
C946        F950   1.384       .  S
C946       F1311   1.383       .  S
C946       F1312   1.385   1_455  S
F949       C1303   1.384   1_655  S
F951       C1306   1.383       .  S
F952       C1306   1.385   1_655  S
C953       C1314   1.407       .  A
C953        C958   1.405       .  A
C953        H960   1.082       .  S
C954       C1313   1.407       .  A
C954        C955   1.420   1_556  A
C955        C956   1.408       .  A
C955        C962   1.521       .  S
C956        C957   1.409   1_554  A
C956        H961   1.082       .  S
C957       C1318   1.421       .  A
C958       C1317   1.421       .  A
C958        C959   1.521       .  S
C959        F964   1.383       .  S
C962        F966   1.383   1_554  S
C962        F967   1.383       .  S
C962        F968   1.385       .  S
F963       C1679   1.386       .  S
F965       C1679   1.383       .  S
C969        C970   1.408       .  A
C969        C974   1.406       .  A
C969        H976   1.082       .  S
C970       C1691   1.419       .  A
C971        C972   1.406       .  A
C971        C978   1.522       .  S
C972        C973   1.408       .  A
C972        H977   1.082       .  S
C974       C1693   1.420       .  A
C974        C975   1.520       .  S
C975        F979   1.383       .  S
C975       F1700   1.382       .  S
C975        F981   1.383       .  S
C978        F982   1.383       .  S
C978        F984   1.385       .  S
F983       C1698   1.381       .  S
C985        C986   1.407       .  A
C985        C990   1.411       .  A
C985        H992   1.082       .  S
C986        C987   1.418       .  A
C987        C988   1.406       .  A
C987        C994   1.521       .  S
C988        C989   1.410       .  A
C988        H993   1.082       .  S
C989        C990   1.423       .  A
C990        C991   1.521       .  S
C991        F995   1.385       .  S
C991        F996   1.383       .  S
C991        F997   1.384       .  S
C994        F998   1.384       .  S
C994        F999   1.382       .  S
C994       F1000   1.385       .  S
C1001      C1002   1.406       .  A
C1001      C1006   1.406       .  A
C1001      H1008   1.083       .  S
C1002      C1003   1.428       .  A
C1003      C1004   1.408       .  A
C1003      C1010   1.523       .  S
C1004      C1005   1.401       .  A
C1004      H1009   1.083       .  S
C1005      C1006   1.419       .  A
C1006      C1007   1.520       .  S
C1007      F1011   1.385       .  S
C1007      F1012   1.382       .  S
C1007      F1013   1.384       .  S
C1010      F1014   1.383       .  S
C1010      F1015   1.384       .  S
C1010      F1016   1.385       .  S
C1017      C1018   1.410   1_455  A
C1017      C1022   1.407       .  A
C1017      H1024   1.082       .  S
C1018      C1019   1.422       .  A
C1019      C1020   1.406   1_655  A
C1019      C1026   1.521       .  S
C1020      C1021   1.408       .  A
C1020      H1025   1.082       .  S
C1021      C1022   1.420       .  A
C1022      C1023   1.522       .  S
C1023      F1027   1.385       .  S
C1023      F1028   1.384       .  S
C1023      F1029   1.382       .  S
C1026      F1030   1.383       .  S
C1026      F1031   1.383       .  S
C1026      F1032   1.385       .  S
C1033      C1034   1.410       .  A
C1033      C1038   1.406       .  A
C1033      H1040   1.082       .  S
C1034      C1755   1.421       .  A
C1035      C1036   1.408       .  A
C1035      C1042   1.520       .  S
C1036      C1037   1.406       .  A
C1036      H1041   1.083       .  S
C1038      C1757   1.416       .  A
C1038      C1039   1.521       .  S
C1039      F1043   1.384       .  S
C1039      F1044   1.384       .  S
C1039      F1045   1.383       .  S
C1042      F1046   1.383       .  S
C1042      F1047   1.384       .  S
C1042      F1048   1.385       .  S
C1049      C1054   1.408       .  A
C1049      H1056   1.083       .  S
C1050      C1769   1.403       .  A
C1050      C1051   1.422       .  A
C1051      C1052   1.407       .  A
C1051      C1058   1.521       .  S
C1052      C1773   1.405       .  A
C1052      H1057   1.083       .  S
C1053      C1054   1.426       .  A
C1054      C1055   1.522       .  S
C1055      F1059   1.385       .  S
C1055      F1060   1.383       .  S
C1055      F1061   1.384       .  S
C1058      F1062   1.383       .  S
C1058      F1063   1.384       .  S
C1058      F1064   1.385       .  S
C1065      C1066   1.403       .  A
C1065      C1070   1.407       .  A
C1065      H1072   1.082       .  S
C1066      C1067   1.423       .  A
C1067      C1068   1.408       .  A
C1067      C1074   1.521       .  S
C1068      C1069   1.404       .  A
C1068      H1073   1.083       .  S
C1069      C1070   1.424       .  A
C1070      C1071   1.522       .  S
C1071      F1075   1.385       .  S
C1071      F1076   1.383       .  S
C1071      F1077   1.384       .  S
C1074      F1078   1.384       .  S
C1074      F1799   1.383       .  S
C1074      F1800   1.385       .  S
O1081      C1084   1.271       .  A
O1081     Cd1086   2.484       .  S
C1082      O1091   1.265       .  A
C1082      O1087   1.269       .  A
C1082      C1394   1.492       .  S
O1083      C1089   1.271       .  A
O1083     Cd1086   2.472       .  S
C1084      O1092   1.263       .  A
C1084      C1410   1.489       .  S
C1085      O1090   1.269       .  A
C1085      O1088   1.266       .  A
C1085      C1378   1.495       .  S
Cd1086     O1093   2.430       .  S
Cd1086     O1092   2.428       .  S
Cd1086     O1091   2.421       .  S
Cd1086     O1087   2.478       .  S
Cd1086     O1090   2.478       .  S
Cd1086     O1088   2.424       .  S
C1089      O1093   1.263       .  A
C1089      C1426   1.490       .  S
O1094      C1097   1.270       .  A
O1094     Cd1099   2.474       .  S
C1095      O1104   1.265       .  A
C1095      O1100   1.268       .  A
C1095      C1346   1.491       .  S
O1096      C1102   1.271       .  A
O1096     Cd1099   2.485       .  S
C1097      O1105   1.264       .  A
C1097      C1365   1.486       .  S
C1098      O1103   1.269       .  A
C1098      O1101   1.265       .  A
C1098      C1330   1.492       .  S
Cd1099     O1106   2.423       .  S
Cd1099     O1105   2.435       .  S
Cd1099     O1104   2.449       .  S
Cd1099     O1100   2.466       .  S
Cd1099     O1103   2.472       .  S
Cd1099     O1101   2.421       .  S
C1102      O1106   1.262       .  A
C1102      C1429   1.490       .  S
O1107      C1830   1.271       .  A
O1107     Cd1472   2.478       .  S
C1108      O1117   1.265       .  A
C1108      O1113   1.269       .  A
C1108      C1397   1.485       .  S
O1109     Cd1112   2.477       .  S
C1110      O1118   1.262       .  A
C1110      C1413   1.493       .  S
C1111      O1116   1.271       .  A
C1111      C1301   1.478   1_556  S
Cd1112     O1119   2.410       .  S
Cd1112     O1117   2.434       .  S
Cd1112     O1113   2.455       .  S
Cd1112     O1116   2.447       .  S
C1115      C1314   1.490       .  S
O1120      C1123   1.272       .  A
C1121      O1130   1.265       .  A
C1121      O1126   1.269       .  A
C1121      C1349   1.497       .  S
O1122     Cd1125   2.463       .  S
C1123      O1131   1.262       .  A
C1123      C1362   1.495       .  S
C1124      O1129   1.267       .  A
C1124      C1282   1.490       .  S
Cd1125     O1132   2.432       .  S
Cd1125     O1130   2.425       .  S
Cd1125     O1126   2.484       .  S
Cd1125     O1129   2.463       .  S
C1128      C1317   1.492       .  S
O1133      C1136   1.268       .  A
O1133     Cd1138   2.467       .  S
C1134      O1143   1.265       .  A
C1134      O1139   1.268       .  A
C1134      C1234   1.490       .  S
O1135      C1141   1.270       .  A
O1135     Cd1138   2.458       .  S
C1136      O1144   1.266       .  A
C1136      C1250   1.492       .  S
C1137      O1142   1.268       .  A
C1137      O1140   1.265       .  A
C1137      C1333   1.492       .  S
Cd1138     O1145   2.454       .  S
Cd1138     O1144   2.417       .  S
Cd1138     O1143   2.408       .  S
Cd1138     O1139   2.460       .  S
Cd1138     O1142   2.460       .  S
Cd1138     O1140   2.421       .  S
C1141      O1145   1.264       .  A
C1141      C1269   1.494       .  S
O1146      C1869   1.271       .  A
O1146     Cd1871   2.480       .  S
C1147      O1156   1.267       .  A
C1147      C1205   1.494       .  S
O1148      C1154   1.269       .  A
O1148     Cd1151   2.462       .  S
C1149      O1157   1.261       .  A
C1149      C1218   1.486       .  S
C1150      O1155   1.267       .  A
C1150      O1153   1.265       .  A
C1150      C1381   1.491       .  S
Cd1151     O1158   2.439       .  S
Cd1151     O1157   2.406       .  S
Cd1151     O1156   2.444       .  S
Cd1151     O1155   2.469       .  S
Cd1151     O1153   2.418       .  S
O1152      C1867   1.268       .  A
O1152     Cd1871   2.469       .  S
C1154      O1158   1.264       .  A
C1154      C1266   1.491       .  S
O1159      C1162   1.267       .  A
C1160      O1169   1.266       .  A
C1160      O1165   1.268       .  A
C1160      C1237   1.483       .  S
O1161     Cd1164   2.486   1_554  S
C1162      O1170   1.266       .  A
C1162      C1253   1.488       .  S
C1163      C1285   1.485       .  S
Cd1164     O1171   2.425   1_556  S
Cd1164     O1169   2.418       .  S
Cd1164     O1165   2.455       .  S
C1167      C1189   1.491       .  S
O1172      C1175   1.271       .  A
C1173      O1182   1.266       .  A
C1173      O1178   1.269       .  A
C1173      C1202   1.493       .  S
O1174     Cd1177   2.469       .  S
C1175      O1183   1.263       .  A
C1175      C1221   1.487       .  S
C1176      C1298   1.476       .  S
Cd1177     O1184   2.438       .  S
Cd1177     O1182   2.422   1_554  S
Cd1177     O1178   2.462   1_554  S
C1180      C1186   1.489       .  S
C1185      C1190   1.407       .  A
C1185      H1192   1.082       .  S
C1186      C1187   1.423       .  A
C1187      C1188   1.408       .  A
C1187      C1194   1.521       .  S
C1188      C1189   1.405       .  A
C1188      H1193   1.083       .  S
C1190      C1191   1.522       .  S
C1191      F1195   1.385       .  S
C1191      F1197   1.383       .  S
C1194      F1198   1.383       .  S
C1194      F1919   1.384       .  S
C1194      F1920   1.385       .  S
C1201      C1202   1.409       .  A
C1201      C1206   1.407       .  A
C1201      H1208   1.082       .  S
C1202      C1923   1.420       .  A
C1203      C1204   1.408       .  A
C1203      C1210   1.521       .  S
C1204      C1205   1.409       .  A
C1204      H1209   1.082       .  S
C1206      C1925   1.419       .  A
C1206      C1207   1.521       .  S
C1207      F1211   1.385       .  S
C1207      F1212   1.383       .  S
C1207      F1213   1.383       .  S
C1210      F1214   1.383       .  S
C1210      F1216   1.384       .  S
F1215      C1930   1.384       .  S
C1217      C1938   1.405       .  A
C1217      C1222   1.406       .  A
C1217      H1224   1.082       .  S
C1218      C1219   1.422       .  A
C1219      C1226   1.523       .  S
C1220      C1939   1.406       .  A
C1220      C1221   1.402       .  A
C1220      H1225   1.082       .  S
C1221      C1222   1.422       .  A
C1222      C1223   1.522       .  S
C1223      F1227   1.385       .  S
C1223      F1228   1.383       .  S
C1223      F1229   1.384       .  S
C1226      F1230   1.383       .  S
C1226      F1231   1.384       .  S
C1226      F1232   1.385       .  S
C1233      C1234   1.408       .  A
C1233      C1238   1.403       .  A
C1233      H1240   1.082       .  S
C1234      C1235   1.421       .  A
C1235      C1236   1.405       .  A
C1235      C1242   1.518       .  S
C1236      C1237   1.405       .  A
C1236      H1241   1.083       .  S
C1237      C1238   1.416       .  A
C1238      C1239   1.518       .  S
C1239      F1243   1.385       .  S
C1239      F1244   1.384       .  S
C1239      F1245   1.380       .  S
C1242      F1246   1.383       .  S
C1242      F1247   1.382       .  S
C1242      F1248   1.385       .  S
C1249      C1250   1.408       .  A
C1249      C1254   1.404       .  A
C1249      H1256   1.082       .  S
C1250      C1251   1.421       .  A
C1251      C1252   1.408       .  A
C1251      C1258   1.520       .  S
C1252      C1253   1.407       .  A
C1252      H1257   1.083       .  S
C1253      C1254   1.419       .  A
C1254      C1255   1.520       .  S
C1255      F1259   1.385       .  S
C1255      F1260   1.382       .  S
C1255      F1261   1.383       .  S
C1258      F1262   1.384       .  S
C1258      F1263   1.383       .  S
C1258      F1264   1.385       .  S
C1265      C1266   1.405       .  A
C1265      C1270   1.408       .  A
C1265      H1272   1.082       .  S
C1266      C1267   1.423       .  A
C1267      C1268   1.406       .  A
C1268      C1269   1.405       .  A
C1268      H1273   1.082       .  S
C1269      C1270   1.425       .  A
C1270      C1271   1.522       .  S
C1271      F1275   1.385       .  S
C1271      F1276   1.383       .  S
C1271      F1277   1.383       .  S
C1274      C1987   1.522       .  S
C1274      F1278   1.384       .  S
C1274      F1279   1.383       .  S
C1274      F1280   1.385       .  S
C1281      C1286   1.405       .  A
C1281      H1288   1.082       .  S
C1283      C2002   1.420   1_554  A
C1283      C1284   1.406       .  A
C1283      C1290   1.520       .  S
C1284      C1285   1.407   1_554  A
C1284      H1289   1.083       .  S
C1285      C1646   1.416       .  A
C1286      C1287   1.520       .  S
C1287      F1291   1.384       .  S
C1287      F1292   1.383       .  S
C1290      F1295   1.382   1_554  S
C1290      F1296   1.385       .  S
C1297      C1298   1.402       .  A
C1297      C1302   1.406       .  A
C1298      C1299   1.420   1_554  A
C1299      C1300   1.402   1_455  A
C1299      C1306   1.522       .  S
C1300      C1301   1.401   1_556  A
C1300      H1305   1.083       .  S
C1301      C1302   1.422   1_655  A
C1302      C1303   1.521       .  S
C1303      F1307   1.385       .  S
C1303      F1308   1.383       .  S
C1306      F1310   1.384       .  S
C1313      C1318   1.405       .  A
C1313      H1320   1.082       .  S
C1314      C1315   1.419       .  A
C1315      C1316   1.408       .  A
C1315      C1322   1.521       .  S
C1316      C1317   1.409       .  A
C1316      H1321   1.082       .  S
C1318      C1319   1.522       .  S
C1319      F1324   1.383       .  S
C1322      F1326   1.383       .  S
C1322      F1327   1.383       .  S
C1322      F1328   1.385       .  S
F1323      C2039   1.386       .  S
F1325      C2039   1.383   1_554  S
C1329      C1330   1.408       .  A
C1329      C1334   1.406       .  A
C1329      H1336   1.082       .  S
C1330      C2051   1.420       .  A
C1331      C1332   1.406       .  A
C1331      C1338   1.522       .  S
C1332      C1333   1.409       .  A
C1332      H1337   1.082       .  S
C1334      C2053   1.420       .  A
C1334      C1335   1.520       .  S
C1335      F1339   1.383       .  S
C1335      F2060   1.382       .  S
C1335      F1341   1.383       .  S
C1338      F1342   1.383       .  S
C1338      F1344   1.385       .  S
F1343      C2058   1.381       .  S
C1345      C1346   1.408       .  A
C1345      C1350   1.410       .  A
C1345      H1352   1.082       .  S
C1346      C1347   1.418       .  A
C1347      C1348   1.406       .  A
C1347      C1354   1.521       .  S
C1348      C1349   1.410       .  A
C1348      H1353   1.082       .  S
C1349      C1350   1.423       .  A
C1350      C1351   1.521       .  S
C1351      F1355   1.385       .  S
C1351      F1356   1.383       .  S
C1351      F1357   1.384       .  S
C1354      F1358   1.384       .  S
C1354      F1359   1.382       .  S
C1354      F1360   1.385       .  S
C1361      C1362   1.406       .  A
C1361      C1366   1.406       .  A
C1361      H1368   1.083       .  S
C1362      C1363   1.428       .  A
C1363      C1364   1.408       .  A
C1363      C1370   1.523       .  S
C1364      C1365   1.402       .  A
C1364      H1369   1.083       .  S
C1365      C1366   1.419       .  A
C1366      C1367   1.520       .  S
C1367      F1371   1.385       .  S
C1367      F1372   1.382       .  S
C1367      F1373   1.384       .  S
C1370      F1374   1.383       .  S
C1370      F1375   1.384       .  S
C1370      F1376   1.385       .  S
C1377      C1378   1.410   1_455  A
C1377      C1382   1.407       .  A
C1377      H1384   1.082       .  S
C1378      C1379   1.422       .  A
C1379      C1380   1.406   1_655  A
C1379      C1386   1.521       .  S
C1380      C1381   1.408       .  A
C1380      H1385   1.082       .  S
C1381      C1382   1.420       .  A
C1382      C1383   1.522       .  S
C1383      F1387   1.385       .  S
C1383      F1388   1.384       .  S
C1383      F1389   1.382       .  S
C1386      F1390   1.383       .  S
C1386      F1391   1.383       .  S
C1386      F1392   1.385       .  S
C1393      C1394   1.410       .  A
C1393      C1398   1.406       .  A
C1393      H1400   1.082       .  S
C1394      C2115   1.421       .  A
C1395      C1396   1.408       .  A
C1395      C1402   1.520       .  S
C1396      C1397   1.406       .  A
C1396      H1401   1.083       .  S
C1398      C2117   1.416       .  A
C1398      C1399   1.521       .  S
C1399      F1403   1.384       .  S
C1399      F1404   1.384       .  S
C1399      F1405   1.383       .  S
C1402      F1406   1.383       .  S
C1402      F1407   1.384       .  S
C1402      F1408   1.385       .  S
C1409      C1414   1.408       .  A
C1409      H1416   1.083       .  S
C1410      C2129   1.403       .  A
C1410      C1411   1.422       .  A
C1411      C1412   1.407       .  A
C1411      C1418   1.521       .  S
C1412      C2133   1.405       .  A
C1412      H1417   1.083       .  S
C1413      C1414   1.426       .  A
C1414      C1415   1.523       .  S
C1415      F1419   1.385       .  S
C1415      F1420   1.383       .  S
C1415      F1421   1.384       .  S
C1418      F1422   1.383       .  S
C1418      F1423   1.384       .  S
C1418      F1424   1.385       .  S
C1425      C1426   1.403       .  A
C1425      C1430   1.407       .  A
C1425      H1432   1.082       .  S
C1426      C1427   1.423       .  A
C1427      C1428   1.408       .  A
C1427      C1434   1.522       .  S
C1428      C1429   1.404       .  A
C1428      H1433   1.083       .  S
C1429      C1430   1.424       .  A
C1430      C1431   1.522       .  S
C1431      F1435   1.385       .  S
C1431      F1436   1.383       .  S
C1431      F1437   1.384       .  S
C1434      F1438   1.384       .  S
C1434      F2159   1.383       .  S
C1434      F2160   1.385       .  S
O1441      C1444   1.270       .  A
O1441     Cd1446   2.483       .  S
C1442      O1451   1.265       .  A
C1442      O1447   1.269       .  A
C1442      C1754   1.493       .  S
O1443      C1449   1.271       .  A
O1443     Cd1446   2.483       .  S
C1444      O1452   1.263       .  A
C1444      C1770   1.489       .  S
C1445      O1450   1.269       .  A
C1445      O1448   1.265       .  A
C1445      C1738   1.497       .  S
Cd1446     O1453   2.431       .  S
Cd1446     O1452   2.434       .  S
Cd1446     O1451   2.419       .  S
Cd1446     O1447   2.479       .  S
Cd1446     O1450   2.488       .  S
Cd1446     O1448   2.426       .  S
C1449      O1453   1.263       .  A
C1449      C1786   1.490       .  S
O1454      C1457   1.270       .  A
O1454     Cd1459   2.477       .  S
C1455      O1464   1.265       .  A
C1455      O1460   1.268       .  A
C1455      C1706   1.496       .  S
O1456      C1462   1.271       .  A
O1456     Cd1459   2.483       .  S
C1457      O1465   1.264       .  A
C1457      C1725   1.485       .  S
C1458      O1463   1.268       .  A
C1458      O1461   1.266       .  A
C1458      C1690   1.492       .  S
Cd1459     O1466   2.421       .  S
Cd1459     O1465   2.440       .  S
Cd1459     O1464   2.446       .  S
Cd1459     O1460   2.480       .  S
Cd1459     O1463   2.469       .  S
Cd1459     O1461   2.422       .  S
C1462      O1466   1.262       .  A
C1462      C1789   1.489       .  S
C1468      O1477   1.265       .  A
C1468      O1473   1.269       .  A
C1468      C1757   1.483       .  S
O1469      C1835   1.269       .  A
O1469     Cd1472   2.473       .  S
C1470      O1478   1.263       .  A
C1470      C1773   1.492       .  S
C1471      O1476   1.271       .  A
C1471      O1834   1.263       .  A
C1471      C1661   1.481       .  S
Cd1472     O1479   2.420       .  S
Cd1472     O1838   2.421       .  S
Cd1472     O1477   2.427       .  S
Cd1472     O1473   2.458       .  S
Cd1472     O1476   2.467       .  S
Cd1472     O1834   2.414       .  S
O1474      C1831   1.262   1_556  A
O1474     Cd1832   2.409       .  S
C1475      O1829   1.269       .  A
C1475      O1839   1.266       .  A
C1475      C1674   1.490       .  S
O1478     Cd1832   2.423   1_554  S
O1479      C1835   1.266       .  A
O1480      C1483   1.271       .  A
O1480     Cd1845   2.478   1_554  S
C1481      O1490   1.266       .  A
C1481      O1486   1.268       .  A
C1481      C1709   1.493       .  S
O1482      C1848   1.269       .  A
O1482     Cd1485   2.495       .  S
C1483      O1491   1.262       .  A
C1483      C1722   1.491       .  S
C1484      O1489   1.269       .  A
C1484      O1847   1.265       .  A
C1484      C1642   1.487       .  S
Cd1485     O1840   2.475       .  S
Cd1485     O1492   2.428       .  S
Cd1485     O1851   2.421       .  S
Cd1485     O1490   2.423       .  S
Cd1485     O1486   2.486       .  S
Cd1485     O1489   2.474       .  S
Cd1485     O1847   2.419       .  S
O1487      C1844   1.266       .  A
O1487     Cd1845   2.416       .  S
C1488      O1842   1.268       .  A
C1488      O1852   1.265       .  A
C1488      C1677   1.496       .  S
O1491     Cd1845   2.416   1_554  S
O1492      C1848   1.266       .  A
O1493      C1496   1.268       .  A
O1493     Cd1498   2.457       .  S
C1494      O1503   1.265       .  A
C1494      O1499   1.269       .  A
C1494      C1594   1.485       .  S
O1495      C1501   1.271       .  A
O1495     Cd1498   2.463       .  S
C1496      O1504   1.266       .  A
C1496      C1610   1.490       .  S
C1497      O1502   1.269       .  A
C1497      O1500   1.266       .  A
C1497      C1693   1.492       .  S
Cd1498     O1505   2.446       .  S
Cd1498     O1504   2.411       .  S
Cd1498     O1503   2.402       .  S
Cd1498     O1499   2.458       .  S
Cd1498     O1502   2.459       .  S
Cd1498     O1500   2.422       .  S
C1501      O1505   1.263       .  A
C1501      C1629   1.493       .  S
C1507      O1516   1.266       .  A
C1507      C1565   1.490       .  S
O1508      C1514   1.270       .  A
O1508     Cd1511   2.475       .  S
C1509      O1517   1.261       .  A
C1509      C1578   1.492       .  S
C1510      O1515   1.268       .  A
C1510      O1513   1.265       .  A
C1510      C1741   1.493       .  S
Cd1511     O1518   2.442       .  S
Cd1511     O1517   2.409       .  S
Cd1511     O1516   2.430       .  S
Cd1511     O1515   2.466       .  S
Cd1511     O1513   2.416       .  S
C1514      O1518   1.264       .  A
C1514      C1626   1.495       .  S
O1519      C1522   1.268       .  A
O1519     Cd1884   2.464       .  S
C1520      O1529   1.265       .  A
C1520      O1525   1.268       .  A
C1520      C1597   1.476       .  S
O1521      C1887   1.271       .  A
O1521     Cd1524   2.487       .  S
C1522      O1530   1.265       .  A
C1522      C1613   1.484       .  S
C1523      O1888   1.268       .  A
C1523      O1886   1.266       .  A
C1523      C1645   1.491       .  S
Cd1524     O1879   2.462       .  S
Cd1524     O1531   2.423       .  S
Cd1524     O1890   2.420       .  S
Cd1524     O1529   2.414       .  S
Cd1524     O1525   2.451       .  S
Cd1524     O1888   2.452       .  S
Cd1524     O1886   2.429       .  S
O1526      C1883   1.266   1_556  A
O1526     Cd1884   2.426   1_556  S
C1527      O1881   1.271   1_554  A
C1527      O1891   1.262       .  A
C1527      C1549   1.493       .  S
O1528      C1883   1.269       .  A
O1528     Cd1884   2.455       .  S
O1530     Cd1884   2.415       .  S
O1531      C1887   1.262       .  A
O1532      C1535   1.271       .  A
O1532     Cd1897   2.465       .  S
C1533      O1542   1.266       .  A
C1533      O1538   1.269       .  A
C1533      C1562   1.491       .  S
O1534      C1900   1.271       .  A
O1534     Cd1537   2.462       .  S
C1535      O1543   1.263       .  A
C1535      C1581   1.491       .  S
C1536      O1901   1.272       .  A
C1536      O1899   1.262       .  A
C1536      C1658   1.480       .  S
Cd1537     O1892   2.464       .  S
Cd1537     O1544   2.441       .  S
Cd1537     O1903   2.422       .  S
Cd1537     O1542   2.411       .  S
Cd1537     O1538   2.466       .  S
Cd1537     O1901   2.473       .  S
Cd1537     O1899   2.405       .  S
O1539      C1896   1.262       .  A
O1539     Cd1897   2.406       .  S
C1540      O1894   1.271       .  A
C1540      O1904   1.264       .  A
C1540      C1546   1.489       .  S
O1541      C1896   1.272       .  A
O1541     Cd1897   2.472       .  S
O1543     Cd1897   2.427       .  S
O1544      C1900   1.264       .  A
C1545      C1906   1.402       .  A
C1545      C1550   1.406       .  A
C1545      H1552   1.082       .  S
C1546      C1905   1.402       .  A
C1546      C1547   1.422   1_554  A
C1547      C1548   1.409       .  A
C1547      C1554   1.521       .  S
C1548      C1549   1.406   1_556  A
C1548      H1553   1.083       .  S
C1549      C1910   1.425       .  A
C1550      C1909   1.424       .  A
C1550      C1551   1.522       .  S
C1551      F1555   1.385       .  S
C1551      F1916   1.384       .  S
C1551      F1557   1.383       .  S
C1554      F1558   1.383   1_565  S
F1556      C1911   1.383       .  S
C1561      C1562   1.408       .  A
C1561      C1566   1.406       .  A
C1561      H1568   1.082       .  S
C1563      C1564   1.407       .  A
C1563      C1570   1.521       .  S
C1564      C1565   1.407       .  A
C1564      H1569   1.082       .  S
C1566      C1567   1.520       .  S
C1567      F1571   1.385       .  S
C1567      F1572   1.383       .  S
C1567      F1573   1.383       .  S
C1570      F1574   1.383       .  S
C1570      F1576   1.384       .  S
C1577      C1582   1.408       .  A
C1577      H1584   1.083       .  S
C1578      C1579   1.426       .  A
C1579      C1586   1.523       .  S
C1580      C1581   1.404   1_545  A
C1580      H1585   1.082       .  S
C1581      C1582   1.425       .  A
C1582      C1583   1.522       .  S
C1583      F1587   1.385       .  S
C1583      F1588   1.383       .  S
C1583      F1589   1.384       .  S
C1586      F1590   1.383       .  S
C1586      F1591   1.384       .  S
C1586      F1592   1.385       .  S
C1593      C1594   1.408       .  A
C1593      C1598   1.403       .  A
C1593      H1600   1.082       .  S
C1594      C1595   1.420       .  A
C1595      C1596   1.406       .  A
C1595      C1602   1.520       .  S
C1596      C1597   1.405       .  A
C1596      H1601   1.083       .  S
C1597      C1598   1.415       .  A
C1598      C1599   1.521       .  S
C1599      F1603   1.385       .  S
C1599      F1604   1.383       .  S
C1599      F1605   1.380       .  S
C1602      F1606   1.383       .  S
C1602      F1607   1.383       .  S
C1602      F1608   1.385       .  S
C1609      C1610   1.409       .  A
C1609      C1614   1.405       .  A
C1609      H1616   1.082       .  S
C1610      C1611   1.421       .  A
C1611      C1612   1.406       .  A
C1611      C1618   1.521       .  S
C1612      C1613   1.406       .  A
C1612      H1617   1.083       .  S
C1613      C1614   1.417       .  A
C1614      C1615   1.521       .  S
C1615      F1619   1.385       .  S
C1615      F1620   1.383       .  S
C1615      F1621   1.383       .  S
C1618      F1622   1.384       .  S
C1618      F1623   1.383       .  S
C1618      F1624   1.385       .  S
C1625      C1626   1.406       .  A
C1625      C1630   1.409       .  A
C1625      H1632   1.082       .  S
C1626      C1627   1.424       .  A
C1627      C1628   1.406       .  A
C1628      C1629   1.404       .  A
C1628      H1633   1.082       .  S
C1629      C1630   1.425       .  A
C1630      C1631   1.522       .  S
C1631      F1635   1.385       .  S
C1631      F1636   1.383       .  S
C1631      F1637   1.383       .  S
C1634      F1638   1.384   1_545  S
C1634      F1639   1.383   1_545  S
C1634      F1640   1.385   1_545  S
C1641      C2002   1.407       .  A
C1641      C1646   1.405       .  A
C1641      H1648   1.082       .  S
C1642      C2001   1.407       .  A
C1643      C1644   1.408       .  A
C1643      C1650   1.521       .  S
C1644      C1645   1.409       .  A
C1644      H1649   1.082       .  S
C1646      C1647   1.519       .  S
C1647      F1651   1.384       .  S
C1647      F1652   1.383   1_556  S
C1647      F2013   1.384       .  S
C1650      F2014   1.384       .  S
C1650      F1655   1.382       .  S
C1650      F1656   1.385       .  S
F1653      C2007   1.384       .  S
F1654      C2010   1.384       .  S
C1657      C1658   1.402       .  A
C1657      C1662   1.405       .  A
C1657      H2024   1.083       .  S
C1658      C1659   1.422       .  A
C1659      C1660   1.405   1_455  A
C1659      C1666   1.522       .  S
C1660      C1661   1.402       .  A
C1660      H1665   1.083       .  S
C1661      C1662   1.422   1_655  A
C1662      C1663   1.521       .  S
C1663      F1667   1.385       .  S
C1663      F1668   1.383       .  S
C1663      F2029   1.384   1_455  S
H1664      C2017   1.083       .  S
C1666      F1670   1.384       .  S
C1666      F2031   1.383       .  S
C1666      F2032   1.384   1_455  S
F1669      C2023   1.384   1_655  S
F1671      C2026   1.383       .  S
F1672      C2026   1.385   1_655  S
C1673      C2034   1.408       .  A
C1673      C1678   1.408       .  A
C1673      H1680   1.082       .  S
C1674      C2033   1.407       .  A
C1674      C1675   1.419       .  A
C1675      C1676   1.407       .  A
C1675      C1682   1.521   1_556  S
C1676      C1677   1.410       .  A
C1676      H1681   1.082   1_556  S
C1677      C2038   1.422       .  A
C1678      C2037   1.422       .  A
C1678      C1679   1.521       .  S
C1679      F1684   1.383       .  S
C1682      F1686   1.383   1_554  S
C1682      F1687   1.383       .  S
C1682      F1688   1.385       .  S
C1689      C1690   1.408       .  A
C1689      C1694   1.406       .  A
C1689      H1696   1.082       .  S
C1691      C1692   1.407       .  A
C1691      C1698   1.521       .  S
C1692      C1693   1.409       .  A
C1692      H1697   1.082       .  S
C1694      C1695   1.521       .  S
C1695      F1699   1.385       .  S
C1695      F1701   1.383       .  S
C1698      F1702   1.383       .  S
C1698      F1704   1.385       .  S
C1705      C1706   1.410       .  A
C1705      C1710   1.410       .  A
C1705      H1712   1.082       .  S
C1706      C1707   1.420       .  A
C1707      C1708   1.406       .  A
C1707      C1714   1.518       .  S
C1708      C1709   1.406       .  A
C1708      H1713   1.082       .  S
C1709      C1710   1.420       .  A
C1710      C1711   1.520       .  S
C1711      F1715   1.385       .  S
C1711      F1716   1.383       .  S
C1711      F1717   1.383       .  S
C1714      F1718   1.384       .  S
C1714      F1719   1.383       .  S
C1714      F1720   1.385       .  S
C1721      C1722   1.406       .  A
C1721      C1726   1.407       .  A
C1721      H1728   1.083       .  S
C1722      C1723   1.426       .  A
C1723      C1724   1.408       .  A
C1723      C1730   1.523       .  S
C1724      C1725   1.402       .  A
C1724      H1729   1.083       .  S
C1725      C1726   1.419       .  A
C1726      C1727   1.520       .  S
C1727      F1731   1.385       .  S
C1727      F1732   1.382       .  S
C1727      F1733   1.384       .  S
C1730      F1734   1.384       .  S
C1730      F1735   1.384       .  S
C1730      F1736   1.385       .  S
C1737      C1738   1.410   1_455  A
C1737      C1742   1.407       .  A
C1737      H1744   1.082       .  S
C1738      C1739   1.421       .  A
C1739      C1740   1.407   1_655  A
C1739      C1746   1.521       .  S
C1740      C1741   1.409       .  A
C1740      H1745   1.082       .  S
C1741      C1742   1.420       .  A
C1742      C1743   1.522       .  S
C1743      F1747   1.384       .  S
C1743      F1748   1.383       .  S
C1743      F1749   1.383       .  S
C1746      F1750   1.383       .  S
C1746      F1751   1.382       .  S
C1746      F1752   1.386       .  S
C1753      C1754   1.409       .  A
C1753      C1758   1.405       .  A
C1753      H1760   1.082       .  S
C1755      C1756   1.408       .  A
C1755      C1762   1.519       .  S
C1756      C1757   1.405       .  A
C1756      H1761   1.083       .  S
C1758      C1759   1.521       .  S
C1759      F1763   1.384       .  S
C1759      F1764   1.384       .  S
C1759      F1765   1.382       .  S
C1762      F1766   1.382       .  S
C1762      F1767   1.384       .  S
C1762      F1768   1.385       .  S
C1769      C1774   1.408       .  A
C1769      H1776   1.083       .  S
C1770      C1771   1.421       .  A
C1771      C1772   1.407       .  A
C1771      C1778   1.521       .  S
C1772      H1777   1.083       .  S
C1773      C1774   1.425       .  A
C1774      C1775   1.522       .  S
C1775      F1779   1.384       .  S
C1775      F1780   1.383       .  S
C1775      F1781   1.384       .  S
C1778      F1782   1.382       .  S
C1778      F1783   1.384       .  S
C1778      F1784   1.385       .  S
C1785      C1786   1.404       .  A
C1785      C1790   1.408       .  A
C1785      H1792   1.083       .  S
C1786      C1787   1.423       .  A
C1787      C1788   1.408       .  A
C1787      C1794   1.521       .  S
C1788      C1789   1.403       .  A
C1788      H1793   1.083       .  S
C1789      C1790   1.423       .  A
C1790      C1791   1.522       .  S
C1791      F1795   1.384       .  S
C1791      F1796   1.383       .  S
C1791      F1797   1.384       .  S
C1794      F1798   1.384       .  S
O1801      C1804   1.270       .  A
O1801     Cd1806   2.482       .  S
C1802      O1811   1.266       .  A
C1802      O1807   1.269       .  A
C1802      C2114   1.494       .  S
O1803      C1809   1.271       .  A
O1803     Cd1806   2.478       .  S
C1804      O1812   1.263       .  A
C1804      C2130   1.490       .  S
C1805      O1810   1.268       .  A
C1805      O1808   1.265       .  A
C1805      C2098   1.497       .  S
Cd1806     O1813   2.429       .  S
Cd1806     O1812   2.434       .  S
Cd1806     O1811   2.423       .  S
Cd1806     O1807   2.478       .  S
Cd1806     O1810   2.488       .  S
Cd1806     O1808   2.426       .  S
C1809      O1813   1.263       .  A
C1809      C2146   1.489       .  S
O1814      C1817   1.271       .  A
O1814     Cd1819   2.481       .  S
C1815      O1824   1.265       .  A
C1815      O1820   1.269       .  A
C1815      C2066   1.496       .  S
O1816      C1822   1.270       .  A
O1816     Cd1819   2.475       .  S
C1817      O1825   1.264       .  A
C1817      C2085   1.484       .  S
C1818      O1823   1.268       .  A
C1818      O1821   1.266       .  A
C1818      C2050   1.491       .  S
Cd1819     O1826   2.419       .  S
Cd1819     O1825   2.437       .  S
Cd1819     O1824   2.443       .  S
Cd1819     O1820   2.479       .  S
Cd1819     O1823   2.463       .  S
Cd1819     O1821   2.422       .  S
C1822      O1826   1.262       .  A
C1822      C2149   1.488       .  S
C1828      O1837   1.265       .  A
C1828      O1833   1.268       .  A
C1828      C2117   1.482       .  S
O1829     Cd1832   2.473       .  S
C1830      O1838   1.263       .  A
C1830      C2133   1.491       .  S
C1831      O1836   1.271       .  A
C1831      C2021   1.480       .  S
Cd1832     O1839   2.412       .  S
Cd1832     O1837   2.428       .  S
Cd1832     O1833   2.459       .  S
Cd1832     O1836   2.465   1_556  S
C1835      C2034   1.492       .  S
O1840      C1843   1.271       .  A
C1841      O1850   1.266       .  A
C1841      O1846   1.269       .  A
C1841      C2069   1.493       .  S
O1842     Cd1845   2.488       .  S
C1843      O1851   1.263       .  A
C1843      C2082   1.492       .  S
C1844      O1849   1.268       .  A
C1844      C2002   1.489       .  S
Cd1845     O1852   2.425       .  S
Cd1845     O1850   2.416       .  S
Cd1845     O1846   2.492       .  S
Cd1845     O1849   2.473       .  S
C1848      C2037   1.498       .  S
O1853      C1856   1.268       .  A
O1853     Cd1858   2.458       .  S
C1854      O1863   1.265       .  A
C1854      O1859   1.269       .  A
C1854      C1954   1.485       .  S
O1855      C1861   1.271       .  A
O1855     Cd1858   2.468       .  S
C1856      O1864   1.266       .  A
C1856      C1970   1.490       .  S
C1857      O1862   1.269       .  A
C1857      O1860   1.266       .  A
C1857      C2053   1.493       .  S
Cd1858     O1865   2.447       .  S
Cd1858     O1864   2.410       .  S
Cd1858     O1863   2.399       .  S
Cd1858     O1859   2.457       .  S
Cd1858     O1862   2.460       .  S
Cd1858     O1860   2.428       .  S
C1861      O1865   1.263       .  A
C1861      C1989   1.495       .  S
C1867      O1876   1.266       .  A
C1867      C1925   1.490       .  S
O1868      C1874   1.270       .  A
O1868     Cd1871   2.478       .  S
C1869      O1877   1.261       .  A
C1869      C1938   1.492       .  S
C1870      O1875   1.269       .  A
C1870      O1873   1.265       .  A
C1870      C2101   1.494       .  S
Cd1871     O1878   2.443       .  S
Cd1871     O1877   2.409       .  S
Cd1871     O1876   2.432       .  S
Cd1871     O1875   2.469       .  S
Cd1871     O1873   2.416       .  S
C1874      O1878   1.264       .  A
C1874      C1986   1.496       .  S
O1879      C1882   1.268       .  A
C1880      O1889   1.265       .  A
C1880      O1885   1.269       .  A
C1880      C1957   1.476       .  S
O1881     Cd1884   2.488   1_556  S
C1882      O1890   1.265       .  A
C1882      C1973   1.484       .  S
C1883      C2005   1.490       .  S
Cd1884     O1891   2.424       .  S
Cd1884     O1889   2.410   1_554  S
Cd1884     O1885   2.453   1_554  S
C1887      C1909   1.491       .  S
O1892      C1895   1.271       .  A
C1893      O1902   1.266       .  A
C1893      O1898   1.269       .  A
C1893      C1922   1.491       .  S
O1894     Cd1897   2.466       .  S
C1895      O1903   1.263       .  A
C1895      C1941   1.491       .  S
C1896      C2018   1.481       .  S
Cd1897     O1904   2.440       .  S
Cd1897     O1902   2.414   1_554  S
Cd1897     O1898   2.465   1_554  S
C1900      C1906   1.489       .  S
C1905      C1910   1.407       .  A
C1905      H1912   1.082       .  S
C1906      C1907   1.422       .  A
C1907      C1908   1.409       .  A
C1907      C1914   1.521       .  S
C1908      C1909   1.405       .  A
C1908      H1913   1.083       .  S
C1910      C1911   1.522       .  S
C1911      F1915   1.385       .  S
C1911      F1917   1.383       .  S
C1914      F1918   1.383   1_565  S
C1921      C1922   1.408       .  A
C1921      C1926   1.406       .  A
C1921      H1928   1.082       .  S
C1923      C1924   1.407       .  A
C1923      C1930   1.521       .  S
C1924      C1925   1.407       .  A
C1924      H1929   1.082       .  S
C1926      C1927   1.520       .  S
C1927      F1931   1.385       .  S
C1927      F1932   1.383       .  S
C1927      F1933   1.383       .  S
C1930      F1934   1.383       .  S
C1930      F1936   1.384       .  S
C1937      C1942   1.408       .  A
C1937      H1944   1.083       .  S
C1938      C1939   1.427       .  A
C1939      C1946   1.523       .  S
C1940      C1941   1.404   1_545  A
C1940      H1945   1.082       .  S
C1941      C1942   1.426       .  A
C1942      C1943   1.522       .  S
C1943      F1947   1.385       .  S
C1943      F1948   1.383       .  S
C1943      F1949   1.384       .  S
C1946      F1950   1.383       .  S
C1946      F1951   1.384       .  S
C1946      F1952   1.385       .  S
C1953      C1954   1.408       .  A
C1953      C1958   1.402       .  A
C1953      H1960   1.082       .  S
C1954      C1955   1.420       .  A
C1955      C1956   1.406       .  A
C1955      C1962   1.520       .  S
C1956      C1957   1.405       .  A
C1956      H1961   1.083       .  S
C1957      C1958   1.415       .  A
C1958      C1959   1.521       .  S
C1959      F1963   1.385       .  S
C1959      F1964   1.383       .  S
C1959      F1965   1.379       .  S
C1962      F1966   1.383       .  S
C1962      F1967   1.383       .  S
C1962      F1968   1.385       .  S
C1969      C1970   1.409       .  A
C1969      C1974   1.405       .  A
C1969      H1976   1.082       .  S
C1970      C1971   1.421       .  A
C1971      C1972   1.406       .  A
C1971      C1978   1.521       .  S
C1972      C1973   1.406       .  A
C1972      H1977   1.083       .  S
C1973      C1974   1.417       .  A
C1974      C1975   1.521       .  S
C1975      F1979   1.385       .  S
C1975      F1980   1.383       .  S
C1975      F1981   1.383       .  S
C1978      F1982   1.384       .  S
C1978      F1983   1.383       .  S
C1978      F1984   1.385       .  S
C1985      C1986   1.406       .  A
C1985      C1990   1.410       .  A
C1985      H1992   1.082       .  S
C1986      C1987   1.425       .  A
C1987      C1988   1.407       .  A
C1988      C1989   1.404       .  A
C1988      H1993   1.082       .  S
C1989      C1990   1.426       .  A
C1990      C1991   1.522       .  S
C1991      F1995   1.385       .  S
C1991      F1996   1.383       .  S
C1991      F1997   1.383       .  S
C1994      F1998   1.384       .  S
C1994      F1999   1.383   1_545  S
C1994      F2000   1.385   1_545  S
C2001      C2006   1.406       .  A
C2001      H2008   1.083       .  S
C2003      C2004   1.408       .  A
C2003      C2010   1.521       .  S
C2004      C2005   1.409       .  A
C2004      H2009   1.082       .  S
C2006      C2007   1.519       .  S
C2007      F2011   1.384       .  S
C2007      F2012   1.383       .  S
C2010      F2015   1.382   1_554  S
C2010      F2016   1.385       .  S
C2017      C2018   1.402       .  A
C2017      C2022   1.405       .  A
C2018      C2019   1.422   1_554  A
C2019      C2020   1.405   1_455  A
C2019      C2026   1.522       .  S
C2020      C2021   1.402   1_556  A
C2020      H2025   1.083       .  S
C2021      C2022   1.421   1_655  A
C2022      C2023   1.522       .  S
C2023      F2027   1.385       .  S
C2023      F2028   1.383       .  S
C2026      F2030   1.384       .  S
C2033      C2038   1.407       .  A
C2033      H2040   1.082       .  S
C2034      C2035   1.419       .  A
C2035      C2036   1.407       .  A
C2035      C2042   1.521       .  S
C2036      C2037   1.410       .  A
C2036      H2041   1.082       .  S
C2038      C2039   1.521       .  S
C2039      F2044   1.383       .  S
C2042      F2046   1.383       .  S
C2042      F2047   1.383       .  S
C2042      F2048   1.385       .  S
C2049      C2050   1.408       .  A
C2049      C2054   1.405       .  A
C2049      H2056   1.082       .  S
C2051      C2052   1.408       .  A
C2051      C2058   1.521       .  S
C2052      C2053   1.410       .  A
C2052      H2057   1.082       .  S
C2054      C2055   1.521       .  S
C2055      F2059   1.384       .  S
C2055      F2061   1.383       .  S
C2058      F2062   1.383       .  S
C2058      F2064   1.385       .  S
C2065      C2066   1.410       .  A
C2065      C2070   1.410       .  A
C2065      H2072   1.082       .  S
C2066      C2067   1.420       .  A
C2067      C2068   1.405       .  A
C2067      C2074   1.518       .  S
C2068      C2069   1.406       .  A
C2068      H2073   1.082       .  S
C2069      C2070   1.420       .  A
C2070      C2071   1.520       .  S
C2071      F2075   1.385       .  S
C2071      F2076   1.383       .  S
C2071      F2077   1.383       .  S
C2074      F2078   1.384       .  S
C2074      F2079   1.382       .  S
C2074      F2080   1.385       .  S
C2081      C2082   1.406       .  A
C2081      C2086   1.407       .  A
C2081      H2088   1.083       .  S
C2082      C2083   1.426       .  A
C2083      C2084   1.408       .  A
C2083      C2090   1.522       .  S
C2084      C2085   1.401       .  A
C2084      H2089   1.083       .  S
C2085      C2086   1.419       .  A
C2086      C2087   1.520       .  S
C2087      F2091   1.385       .  S
C2087      F2092   1.382       .  S
C2087      F2093   1.384       .  S
C2090      F2094   1.384       .  S
C2090      F2095   1.383       .  S
C2090      F2096   1.385       .  S
C2097      C2098   1.410   1_455  A
C2097      C2102   1.407       .  A
C2097      H2104   1.082       .  S
C2098      C2099   1.421       .  A
C2099      C2100   1.407   1_655  A
C2099      C2106   1.521       .  S
C2100      C2101   1.409       .  A
C2100      H2105   1.082       .  S
C2101      C2102   1.420       .  A
C2102      C2103   1.522       .  S
C2103      F2107   1.384       .  S
C2103      F2108   1.383       .  S
C2103      F2109   1.383       .  S
C2106      F2110   1.383       .  S
C2106      F2111   1.382       .  S
C2106      F2112   1.386       .  S
C2113      C2114   1.409       .  A
C2113      C2118   1.405       .  A
C2113      H2120   1.082       .  S
C2115      C2116   1.407       .  A
C2115      C2122   1.519       .  S
C2116      C2117   1.405       .  A
C2116      H2121   1.083       .  S
C2118      C2119   1.521       .  S
C2119      F2123   1.384       .  S
C2119      F2124   1.384       .  S
C2119      F2125   1.382       .  S
C2122      F2126   1.382       .  S
C2122      F2127   1.384       .  S
C2122      F2128   1.385       .  S
C2129      C2134   1.408       .  A
C2129      H2136   1.083       .  S
C2130      C2131   1.422       .  A
C2131      C2132   1.407       .  A
C2131      C2138   1.521       .  S
C2132      H2137   1.082       .  S
C2133      C2134   1.425       .  A
C2134      C2135   1.522       .  S
C2135      F2139   1.384       .  S
C2135      F2140   1.383       .  S
C2135      F2141   1.384       .  S
C2138      F2142   1.383       .  S
C2138      F2143   1.384       .  S
C2138      F2144   1.385       .  S
C2145      C2146   1.404       .  A
C2145      C2150   1.407       .  A
C2145      H2152   1.082       .  S
C2146      C2147   1.423       .  A
C2147      C2148   1.407       .  A
C2147      C2154   1.521       .  S
C2148      C2149   1.403       .  A
C2148      H2153   1.083       .  S
C2149      C2150   1.424       .  A
C2150      C2151   1.522       .  S
C2151      F2155   1.384       .  S
C2151      F2156   1.383       .  S
C2151      F2157   1.384       .  S
C2154      F2158   1.384       .  S
