geometry optimzed in LAMMPS
_audit_creation_date              2020-11-30 
_audit_creation_method            'lammps2cif' 
_symmetry_space_group_name_H-M    'P1' 
_symmetry_Int_Tables_number       1 
_symmetry_cell_setting            triclinic 
loop_ 
_symmetry_equiv_pos_as_xyz 
  x,y,z 
_cell_length_a                    59.70965726 
_cell_length_b                    59.811279223867075 
_cell_length_c                    21.938936120255423 
_cell_angle_alpha                 91.42431501973789 
_cell_angle_beta                  89.93191532506604 
_cell_angle_gamma                 119.95109940401908 
loop_ 
_atom_site_label 
_atom_site_type_symbol 
_atom_site_fract_x 
_atom_site_fract_y 
_atom_site_fract_z 
_atom_site_charge 
C1          C  0.41338254  0.21468279  0.19160629     0.79900
N2          N  0.40986103  0.20215250  0.24484965    -0.78400
C3          C  0.40515081  0.17752239  0.24443749     0.82300
N4          N  0.40428066  0.16548259  0.19079192    -0.78400
C5          C  0.40832223  0.17774078  0.13732537     0.82400
N6          N  0.41278140  0.20240898  0.13782141    -0.80100
C7          C  0.21413254  0.79781532  0.73287123     0.79900
N8          N  0.20454700  0.78830517  0.78868499    -0.78400
C9          C  0.18032781  0.76769541  0.79353679     0.82300
N10         N  0.16580441  0.75658188  0.74238553    -0.78400
C11         C  0.17521587  0.76550862  0.68639112     0.82400
N12         N  0.19943290  0.78612108  0.68201593    -0.80100
C13         C  0.74415651  0.17312030  0.19215480     0.79900
N14         N  0.75518901  0.18199115  0.24838916    -0.78400
C15         C  0.77966126  0.20211742  0.25345532     0.82300
N16         N  0.79298119  0.21318575  0.20272758    -0.78400
C17         C  0.78230215  0.20478939  0.14670107     0.82400
N18         N  0.75782773  0.18465827  0.14139287    -0.80100
C19         C  0.57666185  0.75173072  0.67654522     0.79900
N20         N  0.57704093  0.76191254  0.73292054    -0.78400
C21         C  0.57785931  0.78483052  0.73937495     0.82300
N22         N  0.57823470  0.79769622  0.68920352    -0.78400
C23         C  0.57735066  0.78786999  0.63228942     0.82400
N24         N  0.57653149  0.76467093  0.62588942    -0.80100
C25         C  0.80291811  0.56149261  0.14517414     0.79900
N26         N  0.79455361  0.56329058  0.08846247    -0.78400
C27         C  0.77269643  0.56489792  0.08230417     0.82300
N28         N  0.75935798  0.56460865  0.13256943    -0.78400
C29         C  0.76714484  0.56233967  0.18884268     0.82400
N30         N  0.78892352  0.56081125  0.19483305    -0.80100
C31         C  0.16950344  0.39279949  0.73902786     0.79900
N32         N  0.18140791  0.39260426  0.68568636    -0.78400
C33         C  0.20316609  0.39063750  0.68680178     0.82300
N34         N  0.21273418  0.38890230  0.74115439    -0.78400
C35         C  0.20140879  0.38914319  0.79437681     0.82400
N36         N  0.17975670  0.39118604  0.79328679    -0.80100
O37         O  0.91499281  0.32232349  0.58493393    -0.81200
O38         O  0.96128903  0.40692040  0.80093807    -0.65900
O39         O  0.93117828  0.34441480  0.70359624    -1.12500
C40         C  0.85447455  0.34956321  0.72569505     1.05700
O41         O  0.92881399  0.39096811  0.86543433    -0.79100
O42         O  0.88772645  0.34389578  0.84733524    -0.66700
Ni43       Ni  0.94708124  0.34462025  0.62752670     1.34900
C44         C  0.88288026  0.32262334  0.82224245     0.84400
O45         O  0.97975618  0.37690673  0.75704197    -0.79700
O46         O  0.98160567  0.36552493  0.66031994    -0.89900
C47         C  0.95145344  0.40831008  0.85120581     0.84000
O48         O  0.94605310  0.37394168  0.59878626    -0.68100
O49         O  0.86496397  0.36349791  0.77367447    -0.87400
C50         C  0.95457829  0.39580932  0.62554727     0.84800
C51         C  0.99197228  0.37397726  0.71279147     1.06400
H52         H  0.91565349  0.38705547  0.71733272     0.38200
O53         O  0.91422537  0.37378616  0.74383018    -1.10100
O54         O  0.88619745  0.31979409  0.76611435    -0.66700
Ni55       Ni  0.89807652  0.34209713  0.69774730     1.26300
O56         O  0.95921825  0.39909892  0.68280255    -0.67000
O57         O  0.86566329  0.34068446  0.69188465    -0.79300
C58         C  0.89158278  0.30803820  0.60015036     0.84200
O59         O  0.88298054  0.31105708  0.65034789    -0.66400
Ni60       Ni  0.89776530  0.37684789  0.81597398     1.27400
Ni61       Ni  0.94722056  0.37603883  0.75118746     1.26100
H62         H  0.93015736  0.33065889  0.72777040     0.38700
O63         O  0.06204851  0.63704051  0.10954146    -0.81200
O64         O  0.00566862  0.55082614  0.31018574    -0.65900
O65         O  0.04087770  0.61315213  0.21904150    -1.12500
C66         C  0.11448939  0.60589368  0.27349472     1.05700
O67         O  0.03383127  0.57074141  0.38435573    -0.79100
O68         O  0.07734083  0.61609625  0.37881110    -0.66700
Ni69       Ni  0.02879503  0.61159665  0.13749580     1.34900
C70         C  0.08363690  0.63708376  0.35285661     0.84400
O71         O  0.98947968  0.58048424  0.25367602    -0.79700
O72         O  0.99317857  0.58751145  0.15432341    -0.89900
C73         C  0.01357257  0.55095339  0.36412986     0.84000
O74         O  0.03501168  0.58424949  0.11421626    -0.68100
O75         O  0.10109026  0.59290098  0.31850183    -0.87400
C76         C  0.02352220  0.56205187  0.13749731     0.84800
C77         C  0.97987504  0.58142364  0.20259717     1.06400
H78         H  0.05534459  0.57063692  0.24544803     0.38200
O79         O  0.05532672  0.58431117  0.26976815    -1.10100
O80         O  0.08292402  0.63887190  0.29540395    -0.66700
Ni81       Ni  0.07421931  0.61535124  0.22623025     1.26300
O82         O  0.01475699  0.55865950  0.19176632    -0.67000
O83         O  0.10638746  0.61578686  0.23448889    -0.79300
C84         C  0.08480465  0.65102189  0.13089742     0.84200
O85         O  0.09234332  0.64604608  0.18008440    -0.66400
Ni86       Ni  0.06706325  0.58212173  0.34892974     1.27400
Ni87       Ni  0.02218443  0.58165962  0.26274690     1.26100
H88         H  0.04067380  0.62711871  0.24159884     0.38700
O89         O  0.39394840  0.04485148  0.56765312    -0.81200
O90         O  0.43770407  0.00035386  0.76934035    -0.65900
O91         O  0.40547651  0.03136137  0.67994932    -1.12500
C92         C  0.49105775  0.10432156  0.69140700     1.05700
O93         O  0.45403156  0.03394653  0.83277810    -0.79100
O94         O  0.45497768  0.07826027  0.81610273    -0.66700
Ni95       Ni  0.38647990  0.01355728  0.60726902     1.34900
C96         C  0.43854773  0.08352006  0.79463587     0.84400
O97         O  0.38879321  0.98358117  0.73326491    -0.79700
O98         O  0.37479522  0.97942682  0.63745748    -0.89900
C99         C  0.44879977  0.01105701  0.81970993     0.84000
O100        O  0.41593152  0.01457503  0.57132324    -0.68100
O101        O  0.49458799  0.09337320  0.73670651    -0.87400
C102        C  0.42921048  0.00545886  0.59376792     0.84800
C103        C  0.37367000  0.97019613  0.68974782     1.06400
H104        H  0.46294850  0.04355413  0.68382168     0.38200
O105        O  0.45220779  0.04645449  0.71222224    -1.10100
O106        O  0.43010174  0.07825528  0.73999523    -0.66700
Ni107      Ni  0.43752226  0.06330238  0.66936739     1.26300
O108        O  0.42879323  0.00080217  0.65050283    -0.67000
O109        O  0.46998840  0.09449428  0.66059661    -0.79300
C110        C  0.40650425  0.06904149  0.57921061     0.84200
O111        O  0.42229325  0.07894965  0.62360503    -0.66400
Ni112      Ni  0.47352359  0.06298696  0.78199081     1.27400
Ni113      Ni  0.42087856  0.01481616  0.72317709     1.26100
H114        H  0.39419777  0.03404581  0.70697051     0.38700
O115        O  0.57165287  0.90824198  0.06330855    -0.81200
O116        O  0.54314873  0.96589688  0.26941985    -0.65900
O117        O  0.57068353  0.93010405  0.17683366    -1.12500
C118        C  0.48831572  0.85861140  0.22263999     1.05700
O119        O  0.53498050  0.93811827  0.34055282    -0.79100
O120        O  0.53222941  0.89212830  0.33240568    -0.66700
Ni121      Ni  0.58249487  0.94213413  0.09650978     1.34900
C122        C  0.54756264  0.88577568  0.30811758     0.84400
O123        O  0.58885510  0.98059614  0.21825510    -0.79700
O124        O  0.59674923  0.97805097  0.11977838    -0.89900
C125        C  0.53544206  0.95829336  0.32272021     0.84000
O126        O  0.55067324  0.93939038  0.07029487    -0.68100
O127        O  0.48770470  0.87276977  0.26644220    -0.87400
C128        C  0.53939462  0.95022093  0.09621396     0.84800
C129        C  0.60075848  0.99079469  0.16984141     1.06400
H130        H  0.51381052  0.91662283  0.19889480     0.38200
O131        O  0.52684352  0.91640450  0.22436390    -1.10100
O132        O  0.55293899  0.88825320  0.25163711    -0.66700
Ni133      Ni  0.53951222  0.89716923  0.18149433     1.26300
O134        O  0.54356967  0.95758559  0.15215294    -0.67000
O135        O  0.50750282  0.86540426  0.18712439    -0.79300
C136        C  0.56422530  0.88607202  0.08464982     0.84200
O137        O  0.55293732  0.87915709  0.13535575    -0.66400
Ni138      Ni  0.51169746  0.90560928  0.30181952     1.27400
Ni139      Ni  0.55753906  0.94889659  0.22179108     1.26100
H140        H  0.58447952  0.93018317  0.19973892     0.38700
C141        C  0.63210668  0.28404863  0.60077361     0.02800
C142        C  0.62618994  0.30386888  0.59592850    -0.13400
C143        C  0.64601822  0.32984538  0.59600374     0.00300
C144        C  0.67189195  0.33567998  0.59971262    -0.11900
C145        C  0.67795038  0.31593246  0.60300839     0.02800
C146        C  0.65804057  0.29020546  0.60230960    -0.11300
H147        H  0.60614784  0.29911815  0.59523015     0.08400
H148        H  0.68734134  0.35560565  0.60282101     0.05900
H149        H  0.66272708  0.27499611  0.60705460     0.05800
C150        C  0.34441901  0.67608996  0.24374995     0.02800
C151        C  0.31849576  0.66995242  0.24657423    -0.13400
C152        C  0.29869638  0.64430842  0.25206337     0.00300
C153        C  0.30512312  0.62475949  0.25505671    -0.11900
C154        C  0.33098173  0.63049605  0.25373952     0.02800
C155        C  0.35056755  0.65634073  0.24796406    -0.11300
H156        H  0.31372170  0.68515879  0.24386142     0.08400
H157        H  0.28977893  0.60483878  0.25647018     0.05900
H158        H  0.37064319  0.66121863  0.24753800     0.05800
O159        O  0.39209498  0.43714619  0.07498083    -0.81200
O160        O  0.32143861  0.41260001  0.29686820    -0.65900
O161        O  0.38128393  0.44116744  0.19662488    -1.12500
C162        C  0.38462123  0.36571266  0.22415369     1.05700
O163        O  0.33095816  0.38767318  0.35234795    -0.79100
O164        O  0.38340641  0.41037493  0.34137554    -0.66700
Ni165      Ni  0.38222321  0.45789832  0.12324993     1.34900
C166        C  0.40511090  0.42335066  0.31558159     0.84400
O167        O  0.35079226  0.45950807  0.25026210    -0.79700
O168        O  0.37273575  0.47996972  0.16664392    -0.89900
C169        C  0.31738814  0.39818779  0.34196713     0.84000
O170        O  0.34753178  0.43591114  0.09638392    -0.68100
O171        O  0.37647419  0.36750063  0.27665455    -0.87400
C172        C  0.32694953  0.42044381  0.12323508     0.84800
C173        C  0.36036227  0.47886218  0.21503147     1.06400
H174        H  0.33865918  0.38307827  0.21154672     0.38200
O175        O  0.35291977  0.39577367  0.23647986    -1.10100
O176        O  0.40769032  0.42245656  0.25782798    -0.66700
Ni177      Ni  0.38381623  0.41072481  0.18842396     1.26300
O178        O  0.32610128  0.41544786  0.17932080    -0.67000
O179        O  0.38522617  0.37949832  0.18041365    -0.79300
C180        C  0.41235559  0.43628250  0.08732382     0.84200
O181        O  0.41398239  0.42732196  0.13797273    -0.66400
Ni182      Ni  0.35434916  0.37967633  0.30966304     1.27400
Ni183      Ni  0.35105065  0.42722754  0.24513948     1.26100
H184        H  0.39548896  0.45375818  0.22173886     0.38700
O185        O  0.63839992  0.56369931  0.52393705    -0.81200
O186        O  0.56124863  0.53055911  0.74922954    -0.65900
O187        O  0.62014906  0.55986094  0.64391425    -1.12500
C188        C  0.61379990  0.47780701  0.66864711     1.05700
O189        O  0.58182987  0.51863021  0.81166958    -0.79100
O190        O  0.62708872  0.52094479  0.78702392    -0.66700
Ni191      Ni  0.61656113  0.57320792  0.56824396     1.34900
C192        C  0.64733053  0.53615987  0.75859814     0.84400
O193        O  0.58959995  0.57770439  0.70069992    -0.79700
O194        O  0.59526331  0.58609264  0.60174350    -0.89900
C195        C  0.56225814  0.52080249  0.79928063     0.84000
O196        O  0.58714726  0.54149943  0.54324290    -0.68100
O197        O  0.60187889  0.47648155  0.71798953    -0.87400
C198        C  0.56610538  0.52964371  0.57198366     0.84800
C199        C  0.58943071  0.59027060  0.65492193     1.06400
H200        H  0.57789572  0.50244801  0.66475748     0.38200
O201        O  0.59240329  0.51518328  0.68884587    -1.10100
O202        O  0.64751024  0.54100551  0.70246829    -0.66700
Ni203      Ni  0.62188582  0.52855979  0.63783256     1.26300
O204        O  0.56485200  0.53285552  0.62943734    -0.67000
O205        O  0.62234711  0.49682831  0.63316731    -0.79300
C206        C  0.65234830  0.55372278  0.53494276     0.84200
O207        O  0.65056298  0.54221819  0.58398090    -0.66400
Ni208      Ni  0.59216573  0.49845350  0.76199171     1.27400
Ni209      Ni  0.59036022  0.54598458  0.69556561     1.26100
H210        H  0.63497374  0.57322576  0.66613132     0.38700
C211        C  0.54208541  0.51242039  0.53678712    -0.01600
C212        C  0.51795349  0.50129567  0.56498149    -0.09600
C213        C  0.49516402  0.48650198  0.53117987    -0.18500
C214        C  0.49572694  0.48232370  0.46753579     0.03900
C215        C  0.52027317  0.49338992  0.43926400     0.18100
C216        C  0.54303201  0.50807534  0.47388222    -0.19900
C217        C  0.52199403  0.49008466  0.37637810    -0.21200
C218        C  0.49980088  0.47623782  0.34062289    -0.19700
C219        C  0.47531686  0.46513290  0.36690966     0.19500
C220        C  0.47289241  0.46780633  0.43082324     0.01600
C221        C  0.44770855  0.45579340  0.45508052    -0.14500
C222        C  0.42594958  0.44179761  0.41754416    -0.12200
C223        C  0.42837528  0.43931554  0.35449493     0.01100
C224        C  0.45322015  0.45117697  0.32955788    -0.24300
H225        H  0.51658163  0.50437396  0.61338556     0.09200
H226        H  0.47742073  0.47891321  0.55616579     0.12700
H227        H  0.56155348  0.51652854  0.45135063     0.11400
H228        H  0.54065617  0.49846220  0.35456070     0.12600
H229        H  0.50181117  0.47418138  0.29200876     0.11700
H230        H  0.44412510  0.45664230  0.50297068     0.08700
H231        H  0.40707019  0.43274142  0.43831093     0.12000
H232        H  0.45545402  0.44923873  0.28098372     0.13900
C233        C  0.43380309  0.44657136  0.04286481    -0.01600
C234        C  0.42942668  0.45205023  0.98366929    -0.09600
C235        C  0.44974197  0.46460703  0.94307640    -0.18500
C236        C  0.47544696  0.47237963  0.96037574     0.03900
C237        C  0.47973754  0.46592059  0.01961034     0.18100
C238        C  0.45902029  0.45315924  0.06011423    -0.19900
C239        C  0.50474399  0.47249533  0.03827628    -0.21200
C240        C  0.52553850  0.48506095  0.99922365    -0.19700
C241        C  0.52198934  0.49184740  0.94083262     0.19500
C242        C  0.49698758  0.48609697  0.92093720     0.01600
C243        C  0.49472463  0.49441710  0.86252167    -0.14500
C244        C  0.51611808  0.50672681  0.82444233    -0.12200
C245        C  0.54047427  0.51113002  0.84294807     0.01100
C246        C  0.54329117  0.50404143  0.90185511    -0.24300
H247        H  0.41012762  0.44696738  0.96874504     0.09200
H248        H  0.44468250  0.46800917  0.89850600     0.12700
H249        H  0.46267927  0.44905641  0.10573080     0.11400
H250        H  0.50822798  0.46769573  0.08328170     0.12600
H251        H  0.54457939  0.48954112  0.01488409     0.11700
H252        H  0.47664384  0.49157256  0.84475361     0.08700
H253        H  0.51335351  0.51206213  0.77942021     0.12000
H254        H  0.56207553  0.50757722  0.91713753     0.13900
C255        C  0.35710461  0.50151097  0.22909626    -0.01600
C256        C  0.33839606  0.50015472  0.26977658    -0.09600
C257        C  0.33441385  0.52121254  0.27859890    -0.18500
C258        C  0.34918179  0.54443522  0.24692954     0.03900
C259        C  0.36856876  0.54585121  0.20705815     0.18100
C260        C  0.37227876  0.52463427  0.19860278    -0.19900
C261        C  0.38402130  0.56833267  0.17503766    -0.21200
C262        C  0.38033467  0.58943292  0.18074941    -0.19700
C263        C  0.36098964  0.58853425  0.21833145     0.19500
C264        C  0.34527213  0.56615229  0.25247928     0.01600
C265        C  0.32608317  0.56639230  0.28976293    -0.14500
C266        C  0.32219262  0.58756598  0.29156989    -0.12200
C267        C  0.33709413  0.60921665  0.25614593     0.01100
C268        C  0.35686094  0.60970437  0.22060068    -0.24300
H269        H  0.32638244  0.48256848  0.29385413     0.09200
H270        H  0.31947774  0.51862253  0.31002608     0.12700
H271        H  0.38703435  0.52614620  0.16737267     0.11400
H272        H  0.39893340  0.56952219  0.14481863     0.12600
H273        H  0.39246310  0.60644680  0.15483573     0.11700
H274        H  0.31355075  0.55039420  0.31755992     0.08700
H275        H  0.30721448  0.58684810  0.32072516     0.12000
H276        H  0.36842209  0.62614681  0.19250116     0.13900
C277        C  0.63985827  0.35098358  0.59889119    -0.01600
C278        C  0.65483906  0.37379230  0.56751273    -0.09600
C279        C  0.65063650  0.39465785  0.57461317    -0.18500
C280        C  0.63120611  0.39336403  0.61375070     0.03900
C281        C  0.61549244  0.36982316  0.64380223     0.18100
C282        C  0.61994870  0.34904689  0.63623394    -0.19900
C283        C  0.59573834  0.36727255  0.68237368    -0.21200
C284        C  0.59153284  0.38783151  0.69291070    -0.19700
C285        C  0.60704563  0.41145258  0.66532141     0.19500
C286        C  0.62699718  0.41459977  0.62493248     0.01600
C287        C  0.64205256  0.43897709  0.59843194    -0.14500
C288        C  0.63751153  0.45931349  0.61187574    -0.12200
C289        C  0.61800475  0.45608762  0.65232389     0.01100
C290        C  0.60281589  0.43205332  0.67859530    -0.24300
H291        H  0.67007477  0.37559590  0.53762632     0.09200
H292        H  0.66307328  0.41156827  0.54928957     0.12700
H293        H  0.60846454  0.33164864  0.66149129     0.11400
H294        H  0.58360855  0.34931632  0.70507169     0.12600
H295        H  0.57621641  0.38532675  0.72347125     0.11700
H296        H  0.65760883  0.44303990  0.56760994     0.08700
H297        H  0.64964925  0.47778711  0.59131115     0.12000
H298        H  0.58757346  0.42932165  0.70969766     0.13900
C299        C  0.46563273  0.83264759  0.21468787    -0.01600
C300        C  0.46615301  0.81413704  0.17535158    -0.09600
C301        C  0.44581088  0.78867773  0.17437787    -0.18500
C302        C  0.42445533  0.78099345  0.21350539     0.03900
C303        C  0.42358220  0.80026686  0.25089054     0.18100
C304        C  0.44381353  0.82573614  0.25045205    -0.19900
C305        C  0.40301943  0.79392505  0.29045291    -0.21200
C306        C  0.38354667  0.76850100  0.29541442    -0.19700
C307        C  0.38415404  0.74890871  0.26064654     0.19500
C308        C  0.40436371  0.75485285  0.21844191     0.01600
C309        C  0.40388769  0.73425923  0.18431197    -0.14500
C310        C  0.38452060  0.70883570  0.19289509    -0.12200
C311        C  0.36497288  0.70311275  0.23527425     0.01100
C312        C  0.36478802  0.72328159  0.26858997    -0.24300
H313        H  0.48268848  0.81909615  0.14667637     0.09200
H314        H  0.44775648  0.77539582  0.14381000     0.12700
H315        H  0.44294999  0.84002099  0.28025812     0.11400
H316        H  0.40229683  0.80865348  0.31881305     0.12600
H317        H  0.36810515  0.76408331  0.32733813     0.11700
H318        H  0.41823183  0.73708601  0.15089295     0.08700
H319        H  0.38468513  0.69354204  0.16575342     0.12000
H320        H  0.34975692  0.71895319  0.30170846     0.13900
C321        C  0.51245031  0.13017518  0.67568233    -0.01600
C322        C  0.53534211  0.14153343  0.71049027    -0.09600
C323        C  0.55511704  0.16643310  0.69963208    -0.18500
C324        C  0.55278656  0.18108096  0.65313108     0.03900
C325        C  0.52973789  0.16948356  0.61711937     0.18100
C326        C  0.50982910  0.14427549  0.62870157    -0.19900
C327        C  0.52670018  0.18316058  0.56998738    -0.21200
C328        C  0.54618086  0.20808882  0.55758034    -0.19700
C329        C  0.56906809  0.22002438  0.59234316     0.19500
C330        C  0.57258770  0.20673940  0.64098350     0.01600
C331        C  0.59577832  0.21974585  0.67558472    -0.14500
C332        C  0.61483666  0.24457994  0.66167822    -0.12200
C333        C  0.61156645  0.25743531  0.61310421     0.01100
C334        C  0.58851201  0.24519942  0.57889926    -0.24300
H335        H  0.53800892  0.13124916  0.74714657     0.09200
H336        H  0.57196404  0.17353907  0.72862250     0.12700
H337        H  0.49218870  0.13578061  0.60149765     0.11400
H338        H  0.50917580  0.17448055  0.54236737     0.12600
H339        H  0.54330942  0.21811452  0.52059015     0.11700
H340        H  0.59983549  0.21144462  0.71403487     0.08700
H341        H  0.63217650  0.25399251  0.68989705     0.12000
H342        H  0.58583534  0.25520629  0.54153814     0.13900
C343        C  0.52160769  0.95553683  0.05991987    -0.01600
C344        C  0.51288108  0.97170188  0.08419924    -0.09600
C345        C  0.49798541  0.97870401  0.04908827    -0.18500
C346        C  0.49125024  0.96977393  0.98788135     0.03900
C347        C  0.49889481  0.95226503  0.96439049     0.18100
C348        C  0.51401174  0.94544490  0.00022643    -0.19900
C349        C  0.49194002  0.94215735  0.90473779    -0.21200
C350        C  0.47847145  0.94987819  0.86696559    -0.19700
C351        C  0.47195811  0.96821763  0.88752550     0.19500
C352        C  0.47793321  0.97816778  0.94862145     0.01600
C353        C  0.47139137  0.99698887  0.96686030    -0.14500
C354        C  0.46083163  0.00656694  0.92537833    -0.12200
C355        C  0.45591674  0.99748897  0.86458912     0.01100
C356        C  0.46063252  0.97759368  0.84649563    -0.24300
H357        H  0.51810259  0.97956645  0.13033416     0.09200
H358        H  0.49231711  0.99138003  0.07109242     0.12700
H359        H  0.52025831  0.93259891  0.98110026     0.11400
H360        H  0.49738257  0.92852590  0.88674489     0.12600
H361        H  0.47386028  0.94206546  0.82066261     0.11700
H362        H  0.47508173  0.00546331  0.01222217     0.08700
H363        H  0.45713859  0.02177227  0.94074468     0.12000
H364        H  0.45699803  0.97053402  0.79949772     0.13900
C365        C  0.44556760  0.99985642  0.55243992    -0.01600
C366        C  0.44794174  0.00638774  0.49084881    -0.09600
C367        C  0.46396098  0.00188541  0.45215109    -0.18500
C368        C  0.47821815  0.99059619  0.47389521     0.03900
C369        C  0.47537756  0.98362246  0.53615089     0.18100
C370        C  0.45924055  0.98828010  0.57449139    -0.19900
C371        C  0.48865258  0.97200103  0.56000520    -0.21200
C372        C  0.50442711  0.96671541  0.52314726    -0.19700
C373        C  0.50740599  0.97302330  0.46159286     0.19500
C374        C  0.49480538  0.98552081  0.43611367     0.01600
C375        C  0.49910865  0.99195669  0.37382102    -0.14500
C376        C  0.51390094  0.98471673  0.33768420    -0.12200
C377        C  0.52481286  0.97092771  0.36248714     0.01100
C378        C  0.52222348  0.96599018  0.42489005    -0.24300
H379        H  0.43751001  0.01523856  0.47236395     0.09200
H380        H  0.46470144  0.00737998  0.40547019     0.12700
H381        H  0.45742423  0.98291061  0.62185174     0.11400
H382        H  0.48660956  0.96670287  0.60742303     0.12600
H383        H  0.51412460  0.95731343  0.54278825     0.11700
H384        H  0.49082524  0.00201215  0.35138198     0.08700
H385        H  0.51567041  0.98875733  0.28950287     0.12000
H386        H  0.53088841  0.95558072  0.44454411     0.13900
C387        C  0.27123057  0.63771559  0.25417210    -0.01600
C388        C  0.25420247  0.61882620  0.29362260    -0.09600
C389        C  0.22827502  0.61205180  0.29569696    -0.18500
C390        C  0.21840731  0.62419951  0.25850027     0.03900
C391        C  0.23569134  0.64329907  0.21823710     0.18100
C392        C  0.26180114  0.64987843  0.21647880    -0.19900
C393        C  0.22682087  0.65575128  0.18011986    -0.21200
C394        C  0.20119809  0.64999695  0.18197230    -0.19700
C395        C  0.18385529  0.63174945  0.22222604     0.19500
C396        C  0.19214941  0.61838577  0.26060047     0.01600
C397        C  0.17390599  0.60012041  0.30032001    -0.14500
C398        C  0.14885191  0.59601501  0.30348597    -0.12200
C399        C  0.14086389  0.60967556  0.26689399     0.01100
C400        C  0.15837761  0.62717316  0.22534187    -0.24300
H401        H  0.26102499  0.60936083  0.32376567     0.09200
H402        H  0.21657708  0.59734362  0.32731213     0.12700
H403        H  0.27471489  0.66424963  0.18504698     0.11400
H404        H  0.23984950  0.67021590  0.14903096     0.12600
H405        H  0.19499876  0.66016913  0.15234016     0.11700
H406        H  0.17839458  0.58888843  0.33032318     0.08700
H407        H  0.13570109  0.58209920  0.33535391     0.12000
H408        H  0.15242169  0.63777332  0.19644728     0.13900
C409        C  0.70463981  0.32196875  0.61597781    -0.01600
C410        C  0.71597277  0.31045013  0.58117819    -0.09600
C411        C  0.74025555  0.31419596  0.59716244    -0.18500
C412        C  0.75374519  0.32931155  0.64946988     0.03900
C413        C  0.74202401  0.34097655  0.68437672     0.18100
C414        C  0.71785488  0.33742160  0.66705844    -0.19900
C415        C  0.75427466  0.35581100  0.73695088    -0.21200
C416        C  0.77817408  0.35961096  0.75550390    -0.19700
C417        C  0.79044039  0.34873457  0.72182753     0.19500
C418        C  0.77835026  0.33325565  0.66855957     0.01600
C419        C  0.79149182  0.32251063  0.63672604    -0.14500
C420        C  0.81586774  0.32756721  0.65596306    -0.12200
C421        C  0.82804239  0.34341827  0.70758375     0.01100
C422        C  0.81493685  0.35355449  0.74085319    -0.24300
H423        H  0.70585359  0.29830835  0.54170853     0.09200
H424        H  0.74774118  0.30474160  0.56810055     0.12700
H425        H  0.70881594  0.34593958  0.69469844     0.11400
H426        H  0.74531057  0.36456941  0.76392617     0.12600
H427        H  0.78721591  0.37130199  0.79630507     0.11700
H428        H  0.78361147  0.31030333  0.59647343     0.08700
H429        H  0.82531626  0.31915830  0.62964503     0.12000
H430        H  0.82397298  0.36560869  0.78120071     0.13900
C431        C  0.96640433  0.43018838  0.89481651    -0.01600
C432        C  0.98686636  0.45357241  0.87492538    -0.09600
C433        C  0.99908803  0.47512416  0.91463164    -0.18500
C434        C  0.99122776  0.47391041  0.97598035     0.03900
C435        C  0.97121947  0.44977442  0.99648076     0.18100
C436        C  0.95904711  0.42836294  0.95603369    -0.19900
C437        C  0.96293533  0.44725909  0.05688591    -0.21200
C438        C  0.97337016  0.46846533  0.09700352    -0.19700
C439        C  0.99222192  0.49277153  0.07762225     0.19500
C440        C  0.00182618  0.49583220  0.01721577     0.01600
C441        C  0.02089595  0.52088268  0.00029706    -0.14500
C442        C  0.02878542  0.54214111  0.04031861    -0.12200
C443        C  0.01828865  0.53917373  0.09877993     0.01100
C444        C  0.00070465  0.51422561  0.11773613    -0.24300
H445        H  0.99290722  0.45549480  0.82784912     0.09200
H446        H  0.01430659  0.49255273  0.89565076     0.12700
H447        H  0.94338776  0.41028737  0.97211150     0.11400
H448        H  0.94788075  0.42884384  0.07292605     0.12600
H449        H  0.96611771  0.46596738  0.14311274     0.11700
H450        H  0.02950825  0.52481982  0.95583485     0.08700
H451        H  0.04265437  0.56112491  0.02463721     0.12000
H452        H  0.99249974  0.51157494  0.16289997     0.13900
C453        C  0.95989192  0.41836911  0.58833928    -0.01600
C454        C  0.95055327  0.41471933  0.52815548    -0.09600
C455        C  0.95654954  0.43574384  0.49151623    -0.18500
C456        C  0.97250405  0.46138550  0.51360978     0.03900
C457        C  0.98154304  0.46503627  0.57508242     0.18100
C458        C  0.97496064  0.44368947  0.61182114    -0.19900
C459        C  0.99768725  0.48997436  0.59910798    -0.21200
C460        C  0.00579824  0.51135813  0.56286614    -0.19700
C461        C  0.99771585  0.50841314  0.50183242     0.19500
C462        C  0.98046644  0.48347635  0.47656435     0.01600
C463        C  0.97248506  0.48180692  0.41497350    -0.14500
C464        C  0.98224250  0.50379988  0.37932405    -0.12200
C465        C  0.00021470  0.52816671  0.40367830     0.01100
C466        C  0.00737100  0.53029167  0.46550167    -0.24300
H467        H  0.93864077  0.39542213  0.50890273     0.09200
H468        H  0.94882916  0.43125937  0.44566800     0.12700
H469        H  0.98231417  0.44684565  0.65828237     0.11400
H470        H  0.00456970  0.49294110  0.64593980     0.12600
H471        H  0.01878987  0.53034868  0.58254444     0.11700
H472        H  0.95904117  0.46372360  0.39270592     0.08700
H473        H  0.97634900  0.50155698  0.33185585     0.12000
H474        H  0.02111775  0.54903758  0.48522942     0.13900
C475        C  0.01931966  0.38032013  0.72072342    -0.01600
C476        C  0.03073476  0.38354478  0.77850223    -0.09600
C477        C  0.05573715  0.38708075  0.78460053    -0.18500
C478        C  0.07018105  0.38756222  0.73274285     0.03900
C479        C  0.05878183  0.38523646  0.67442609     0.18100
C480        C  0.03378771  0.38162721  0.66907234    -0.19900
C481        C  0.07219262  0.38614512  0.62136181    -0.21200
C482        C  0.09666942  0.38895165  0.62469319    -0.19700
C483        C  0.10827851  0.39059314  0.68117916     0.19500
C484        C  0.09530705  0.38997130  0.73616572     0.01600
C485        C  0.10789189  0.39125209  0.79179509    -0.14500
C486        C  0.13203766  0.39266527  0.79255792    -0.12200
C487        C  0.14463010  0.39301904  0.73809773     0.01100
C488        C  0.13263593  0.39232404  0.68264317    -0.24300
H489        H  0.02008650  0.38269865  0.81920667     0.09200
H490        H  0.06317120  0.38917401  0.83040473     0.12700
H491        H  0.02542961  0.37947923  0.62395951     0.11400
H492        H  0.06360359  0.38450582  0.57679118     0.12600
H493        H  0.10643591  0.38943612  0.58264892     0.11700
H494        H  0.09935519  0.39075280  0.83542300     0.08700
H495        H  0.14070352  0.39315411  0.83626366     0.12000
H496        H  0.14198428  0.39252155  0.64010768     0.13900
C497        C  0.30297603  0.40830368  0.08671795    -0.01600
C498        C  0.28257895  0.41257638  0.10150091    -0.09600
C499        C  0.26230913  0.40583850  0.05971651    -0.18500
C500        C  0.26200048  0.39449638  0.00205601     0.03900
C501        C  0.28175112  0.38827182  0.99023082     0.18100
C502        C  0.30203311  0.39544726  0.03208283    -0.19900
C503        C  0.28194755  0.37604710  0.93535952    -0.21200
C504        C  0.26383139  0.37118964  0.89010102    -0.19700
C505        C  0.24549403  0.37899506  0.89816559     0.19500
C506        C  0.24377353  0.39024145  0.95450554     0.01600
C507        C  0.22495004  0.39806473  0.95899595    -0.14500
C508        C  0.20999030  0.39658257  0.90801528    -0.12200
C509        C  0.21315653  0.38694235  0.85176646     0.01100
C510        C  0.22995516  0.37697490  0.84847443    -0.24300
H511        H  0.28309991  0.42250740  0.14392185     0.09200
H512        H  0.24760361  0.41038134  0.07292475     0.12700
H513        H  0.31779676  0.39199632  0.02107348     0.11400
H514        H  0.29670168  0.37089729  0.92664513     0.12600
H515        H  0.26497547  0.36237926  0.84729965     0.11700
H516        H  0.22223888  0.40648370  0.00037930     0.08700
H517        H  0.19686385  0.40409445  0.91192130     0.12000
H518        H  0.23206932  0.36879113  0.80565229     0.13900
C519        C  0.21614819  0.38865044  0.63067020    -0.01600
C520        C  0.22962669  0.37506554  0.63342560    -0.09600
C521        C  0.24390427  0.37407084  0.58441973    -0.18500
C522        C  0.24560622  0.38697085  0.53016059     0.03900
C523        C  0.23211582  0.40093247  0.52698451     0.18100
C524        C  0.21708134  0.40124337  0.57667561    -0.19900
C525        C  0.23453078  0.41515745  0.47507783    -0.21200
C526        C  0.25087098  0.41667891  0.42771961    -0.19700
C527        C  0.26466172  0.40340259  0.43013013     0.19500
C528        C  0.26125066  0.38745227  0.48026376     0.01600
C529        C  0.27400088  0.37293492  0.47886913    -0.14500
C530        C  0.29128786  0.37597918  0.43286476    -0.12200
C531        C  0.29652776  0.39343251  0.38603571     0.01100
C532        C  0.28232608  0.40639650  0.38368139    -0.24300
H533        H  0.22938021  0.36518741  0.67437913     0.09200
H534        H  0.25413549  0.36374819  0.59147807     0.12700
H535        H  0.20712099  0.41218449  0.57434467     0.11400
H536        H  0.22435141  0.42585370  0.47192609     0.12600
H537        H  0.25294916  0.42855598  0.38923921     0.11700
H538        H  0.27114318  0.35908728  0.51286109     0.08700
H539        H  0.30103581  0.36484152  0.43495762     0.12000
H540        H  0.28554731  0.41937983  0.34684001     0.13900
C541        C  0.82776576  0.56177368  0.15418758    -0.01600
C542        C  0.83556187  0.55934403  0.21288421    -0.09600
C543        C  0.85946824  0.56107130  0.22312300    -0.18500
C544        C  0.87668727  0.56542898  0.17477697     0.03900
C545        C  0.86872468  0.56781930  0.11525837     0.18100
C546        C  0.84445879  0.56576790  0.10547524    -0.19900
C547        C  0.88522391  0.57270800  0.06588519    -0.21200
C548        C  0.90960069  0.57561727  0.07434019    -0.19700
C549        C  0.91801811  0.57340729  0.13227664     0.19500
C550        C  0.90165832  0.56796006  0.18335022     0.01600
C551        C  0.91118164  0.56551616  0.24057816    -0.14500
C552        C  0.93620142  0.56918859  0.24694156    -0.12200
C553        C  0.95249397  0.57528196  0.19661707     0.01100
C554        C  0.94294258  0.57695864  0.13930024    -0.24300
H555        H  0.82323018  0.55633608  0.25167780     0.09200
H556        H  0.86406023  0.55929155  0.26958513     0.12700
H557        H  0.83885193  0.56786665  0.05992546     0.11400
H558        H  0.87935821  0.57460678  0.02045613     0.12600
H559        H  0.92202207  0.57972282  0.03519666     0.11700
H560        H  0.89982620  0.56094307  0.28136320     0.08700
H561        H  0.94292546  0.56763360  0.29160494     0.12000
H562        H  0.95514089  0.58153501  0.09959484     0.13900
C563        C  0.75204051  0.56187472  0.24275427    -0.01600
C564        C  0.75390403  0.55131496  0.29751780    -0.09600
C565        C  0.73861263  0.54987690  0.34731229    -0.18500
C566        C  0.72107854  0.55924668  0.34389668     0.03900
C567        C  0.72002796  0.57074034  0.28876498     0.18100
C568        C  0.73521330  0.57174724  0.23907571    -0.19900
C569        C  0.70372893  0.58110819  0.28319515    -0.21200
C570        C  0.68819666  0.58017924  0.33117008    -0.19700
C571        C  0.68830943  0.56852765  0.38556591     0.19500
C572        C  0.70456779  0.55771120  0.39287660     0.01600
C573        C  0.70323070  0.54557801  0.44848923    -0.14500
C574        C  0.68652855  0.54441016  0.49479419    -0.12200
C575        C  0.67077261  0.55538744  0.48734501     0.01100
C576        C  0.67192895  0.56745437  0.43247118    -0.24300
H577        H  0.76688804  0.54367933  0.30157534     0.09200
H578        H  0.74097401  0.54138704  0.38780553     0.12700
H579        H  0.73394568  0.58037905  0.19726105     0.11400
H580        H  0.70298096  0.59001273  0.24138259     0.12600
H581        H  0.67578277  0.58840866  0.32542504     0.11700
H582        H  0.71458459  0.53652861  0.45723306     0.08700
H583        H  0.68584995  0.53472486  0.53640162     0.12000
H584        H  0.65973271  0.57586539  0.42562009     0.13900
C585        C  0.67190516  0.54731614  0.79249471    -0.01600
C586        C  0.67828874  0.56698002  0.83624420    -0.09600
C587        C  0.69884100  0.57402778  0.87706147    -0.18500
C588        C  0.71297274  0.56076056  0.87666117     0.03900
C589        C  0.70643343  0.54092821  0.83151592     0.18100
C590        C  0.68652921  0.53493892  0.78890646    -0.19900
C591        C  0.71850716  0.52598166  0.83189840    -0.21200
C592        C  0.73571679  0.52915637  0.87861086    -0.19700
C593        C  0.74207629  0.54807039  0.92468053     0.19500
C594        C  0.73184697  0.56504423  0.92234998     0.01600
C595        C  0.74003869  0.58483124  0.96764745    -0.14500
C596        C  0.75503450  0.58568900  0.01720901    -0.12200
C597        C  0.76295350  0.56739519  0.02255829     0.01100
C598        C  0.75753167  0.54936114  0.97476057    -0.24300
H599        H  0.66670807  0.57625412  0.84031068     0.09200
H600        H  0.70211539  0.58880577  0.91074588     0.12700
H601        H  0.68101442  0.51919104  0.75588057     0.11400
H602        H  0.71360309  0.51083177  0.79759225     0.12600
H603        H  0.74367135  0.51636733  0.87941985     0.11700
H604        H  0.73456864  0.59948366  0.96692884     0.08700
H605        H  0.75957397  0.60013803  0.05314142     0.12000
H606        H  0.76374340  0.53522822  0.97861456     0.13900
C607        C  0.58253855  0.61082277  0.66130126    -0.01600
C608        C  0.57403074  0.61794620  0.60958546    -0.09600
C609        C  0.57160488  0.63993056  0.61054048    -0.18500
C610        C  0.57783995  0.65585889  0.66352754     0.03900
C611        C  0.58467557  0.64762520  0.71727409     0.18100
C612        C  0.58696175  0.62525581  0.71576221    -0.19900
C613        C  0.58978760  0.66214133  0.77170745    -0.21200
C614        C  0.58845250  0.68472760  0.77378189    -0.19700
C615        C  0.58264069  0.69374521  0.72110629     0.19500
C616        C  0.57762621  0.67967363  0.66497339     0.01600
C617        C  0.57328302  0.69041426  0.61247861    -0.14500
C618        C  0.57319357  0.71376735  0.61601839    -0.12200
C619        C  0.57721712  0.72713275  0.67186241     0.01100
C620        C  0.58208879  0.71695492  0.72417282    -0.24300
H621        H  0.56983580  0.60676766  0.56726977     0.09200
H622        H  0.56501110  0.64405107  0.56886160     0.12700
H623        H  0.59335507  0.61980938  0.75613747     0.11400
H624        H  0.59487771  0.65600318  0.81296092     0.12600
H625        H  0.59241982  0.69545774  0.81673791     0.11700
H626        H  0.57028933  0.68144055  0.56777008     0.08700
H627        H  0.56977308  0.72127181  0.57480832     0.12000
H628        H  0.58578233  0.72725431  0.76768734     0.13900
C629        C  0.57940517  0.79653680  0.79998274    -0.01600
C630        C  0.56267498  0.78244434  0.84672399    -0.09600
C631        C  0.56184543  0.79501654  0.90073489    -0.18500
C632        C  0.57808372  0.82202724  0.90924214     0.03900
C633        C  0.59671585  0.83545587  0.86370873     0.18100
C634        C  0.59690150  0.82275665  0.80959483    -0.19900
C635        C  0.61444573  0.86177525  0.87109341    -0.21200
C636        C  0.61303307  0.87560271  0.92095961    -0.19700
C637        C  0.59336071  0.86355035  0.96341110     0.19500
C638        C  0.57588876  0.83650981  0.95939175     0.01600
C639        C  0.55608261  0.82567818  0.00337122    -0.14500
C640        C  0.55275195  0.84146843  0.04650758    -0.12200
C641        C  0.56922206  0.86826294  0.04713864     0.01100
C642        C  0.59016353  0.87887015  0.00752628    -0.24300
H643        H  0.54935483  0.76194948  0.84024460     0.09200
H644        H  0.54804361  0.78330343  0.93438771     0.12700
H645        H  0.61033668  0.83348203  0.77389960     0.11400
H646        H  0.62903651  0.87190403  0.83712830     0.12600
H647        H  0.62657154  0.89617062  0.92452969     0.11700
H648        H  0.54217871  0.80532342  0.00356646     0.08700
H649        H  0.53659314  0.83287283  0.07735307     0.12000
H650        H  0.60338365  0.89955594  0.00889005     0.13900
C651        C  0.57758149  0.80319798  0.57932100    -0.01600
C652        C  0.58717275  0.82979222  0.58829399    -0.09600
C653        C  0.58547418  0.84470236  0.54267415    -0.18500
C654        C  0.57380160  0.83357390  0.48564809     0.03900
C655        C  0.56502745  0.80683761  0.47523033     0.18100
C656        C  0.56705951  0.79192533  0.52184081    -0.19900
C657        C  0.55375427  0.79510635  0.41882573    -0.21200
C658        C  0.55056497  0.80916407  0.37316855    -0.19700
C659        C  0.55821839  0.83528748  0.38283800     0.19500
C660        C  0.57003178  0.84790500  0.43925015     0.01600
C661        C  0.57655801  0.87404426  0.44770090    -0.14500
C662        C  0.57050429  0.88664213  0.40338204    -0.12200
C663        C  0.55856427  0.87407827  0.34832872     0.01100
C664        C  0.55307302  0.84858443  0.33756447    -0.24300
H665        H  0.59589188  0.83928269  0.63156428     0.09200
H666        H  0.59331145  0.86489821  0.55387964     0.12700
H667        H  0.55961756  0.77143109  0.51406404     0.11400
H668        H  0.54707627  0.77480880  0.41015848     0.12600
H669        H  0.54146785  0.79934600  0.33042660     0.11700
H670        H  0.58538878  0.88503464  0.48907294     0.08700
H671        H  0.57450536  0.90617156  0.41290939     0.12000
H672        H  0.54318241  0.83854339  0.29560899     0.13900
C673        C  0.71915671  0.14893902  0.18595159    -0.01600
C674        C  0.71049738  0.13683383  0.12853558    -0.09600
C675        C  0.68946143  0.11194551  0.12306056    -0.18500
C676        C  0.67647653  0.09820168  0.17525284     0.03900
C677        C  0.68444842  0.11110550  0.23312831     0.18100
C678        C  0.70535014  0.13635233  0.23783187    -0.19900
C679        C  0.67237362  0.09832931  0.28629498    -0.21200
C680        C  0.65327415  0.07252046  0.28351652    -0.19700
C681        C  0.64562594  0.05905655  0.22743839     0.19500
C682        C  0.65663525  0.07183934  0.17232507     0.01600
C683        C  0.64783306  0.05745755  0.11682412    -0.14500
C684        C  0.62968944  0.03127479  0.11635498    -0.12200
C685        C  0.61952528  0.01861911  0.17090316     0.01100
C686        C  0.62729012  0.03271207  0.22625079    -0.24300
H687        H  0.72065576  0.14615012  0.08754865     0.09200
H688        H  0.68453101  0.10377018  0.07746850     0.12700
H689        H  0.71169275  0.14565173  0.28247759     0.11400
H690        H  0.67828248  0.10813910  0.33049625     0.12600
H691        H  0.64473924  0.06291377  0.32559783     0.11700
H692        H  0.65465430  0.06572830  0.07294558     0.08700
H693        H  0.62363317  0.02090609  0.07285450     0.12000
H694        H  0.61936559  0.02310036  0.26871333     0.13900
C695        C  0.87382012  0.28790084  0.55637155    -0.01600
C696        C  0.88378227  0.27805352  0.51244219    -0.09600
C697        C  0.86792787  0.26092805  0.46686943    -0.18500
C698        C  0.84143711  0.25340039  0.46297061     0.03900
C699        C  0.83115186  0.26281808  0.50878383     0.18100
C700        C  0.84731318  0.27966348  0.55546756    -0.19900
C701        C  0.80506039  0.25605304  0.50648284    -0.21200
C702        C  0.78911967  0.24075442  0.45845293    -0.19700
C703        C  0.79889886  0.23185354  0.41167797     0.19500
C704        C  0.82511364  0.23768348  0.41397274     0.01600
C705        C  0.83420823  0.22839667  0.36575096    -0.14500
C706        C  0.81856713  0.21550179  0.31558361    -0.12200
C707        C  0.79327261  0.21092731  0.31212894     0.01100
C708        C  0.78305646  0.21817720  0.36109727    -0.24300
H709        H  0.90412889  0.28389432  0.51282499     0.09200
H710        H  0.87727964  0.25448366  0.43474483     0.12700
H711        H  0.83949657  0.28727861  0.58944534     0.11400
H712        H  0.79707618  0.26312143  0.54133679     0.12600
H713        H  0.76917713  0.23635504  0.45715817     0.11700
H714        H  0.85353886  0.23142857  0.36414231     0.08700
H715        H  0.82660621  0.20976806  0.27804244     0.12000
H716        H  0.76345012  0.21473058  0.35797358     0.13900
C717        C  0.87148979  0.29997963  0.86029884    -0.01600
C718        C  0.88407994  0.30028898  0.91399616    -0.09600
C719        C  0.87113602  0.28175522  0.95750202    -0.18500
C720        C  0.84470794  0.26295131  0.94935087     0.03900
C721        C  0.83235201  0.26218879  0.89337884     0.19500
C722        C  0.84607153  0.28028088  0.84870770    -0.19900
C723        C  0.80599164  0.24459379  0.88414628    -0.21200
C724        C  0.79123093  0.22875954  0.93084813    -0.19700
C725        C  0.80263832  0.22980735  0.98732233     0.19500
C726        C  0.82974346  0.24617841  0.99637218     0.01600
C727        C  0.84059351  0.24592488  0.05318389    -0.14500
C728        C  0.82501510  0.23179227  0.10058245    -0.12200
C729        C  0.79814170  0.21709559  0.09308820     0.01100
C730        C  0.78706341  0.21533932  0.03565505    -0.24300
H731        H  0.90371973  0.31559322  0.92336365     0.09200
H732        H  0.88200640  0.28372324  0.99835573     0.12700
H733        H  0.83629839  0.28046660  0.80722186     0.11400
H734        H  0.79649980  0.24386841  0.84146031     0.12600
H735        H  0.77066618  0.21609282  0.92325156     0.11700
H736        H  0.86102180  0.25670613  0.06301837     0.08700
H737        H  0.83420197  0.23276179  0.14389478     0.12000
H738        H  0.76629686  0.20364149  0.02926521     0.13900
C739        C  0.23996368  0.82122893  0.72720789    -0.01600
C740        C  0.25158132  0.82831901  0.67001471    -0.09600
C741        C  0.27504012  0.85116246  0.66331975    -0.18500
C742        C  0.28764586  0.86804293  0.71381928     0.03900
C743        C  0.27582676  0.86082493  0.77175082     0.18100
C744        C  0.25252585  0.83741987  0.77810331    -0.19900
C745        C  0.28685071  0.87743001  0.82265851    -0.21200
C746        C  0.30890904  0.90147855  0.81692906    -0.19700
C747        C  0.32089350  0.90927665  0.76044337     0.19500
C748        C  0.31090837  0.89230911  0.70846588     0.01600
C749        C  0.32433681  0.90064775  0.65307898    -0.14500
C750        C  0.34531815  0.92555379  0.64826511    -0.12200
C751        C  0.35398982  0.94284833  0.69850524     0.01100
C752        C  0.34233879  0.93426205  0.75513011    -0.24300
H753        H  0.24236587  0.81627750  0.62980978     0.09200
H754        H  0.28237535  0.85541759  0.61765460     0.12700
H755        H  0.24365553  0.83234196  0.82251996     0.11400
H756        H  0.27792502  0.87208667  0.86695236     0.12600
H757        H  0.31648091  0.91418989  0.85686191     0.11700
H758        H  0.31888319  0.88853264  0.61239337     0.08700
H759        H  0.35453394  0.93151117  0.60443939     0.12000
H760        H  0.34913252  0.94744295  0.79439586     0.13900
C761        C  0.16962255  0.75665195  0.85326372    -0.01600
C762        C  0.18436805  0.75262001  0.89661311    -0.09600
C763        C  0.17275511  0.73842681  0.94880348    -0.18500
C764        C  0.14602914  0.72823006  0.95935355     0.03900
C765        C  0.13184135  0.73429641  0.91724065     0.18100
C766        C  0.14357111  0.74796659  0.86468700    -0.19900
C767        C  0.10573935  0.72602297  0.92661238    -0.21200
C768        C  0.09294245  0.71075285  0.97543832    -0.19700
C769        C  0.10573979  0.70274550  0.01496664     0.19500
C770        C  0.13254089  0.71156571  0.00854397     0.01600
C771        C  0.14407118  0.70215848  0.04965080    -0.14500
C772        C  0.12906525  0.68339129  0.09222335    -0.12200
C773        C  0.10235944  0.67383992  0.09524781     0.01100
C774        C  0.09128445  0.68467387  0.05862404    -0.24300
H775        H  0.20464149  0.75938709  0.88868061     0.09200
H776        H  0.18498947  0.73537741  0.97956702     0.12700
H777        H  0.13220879  0.75144354  0.83167349     0.11400
H778        H  0.09498490  0.73096553  0.89521150     0.12600
H779        H  0.07254213  0.70418693  0.98067280     0.11700
H780        H  0.16432648  0.70806185  0.04797842     0.08700
H781        H  0.13810695  0.67547418  0.12058504     0.12000
H782        H  0.07074530  0.67788113  0.06177519     0.13900
C783        C  0.09343875  0.66059839  0.39190961    -0.01600
C784        C  0.11657280  0.68282196  0.37771417    -0.09600
C785        C  0.12900761  0.70311342  0.42068933    -0.18500
C786        C  0.11846277  0.70169262  0.47927439     0.03900
C787        C  0.09370043  0.68013758  0.49082897     0.18100
C788        C  0.08160223  0.65980618  0.44751281    -0.19900
C789        C  0.08176679  0.67829944  0.54683090    -0.21200
C790        C  0.09468625  0.69642746  0.59344987    -0.19700
C791        C  0.11998563  0.71659149  0.58544743     0.19500
C792        C  0.13203241  0.72002691  0.52779971     0.01600
C793        C  0.15766673  0.74072902  0.52254970    -0.14500
C794        C  0.17126366  0.75618271  0.57337019    -0.12200
C795        C  0.15975810  0.75170445  0.63087906     0.01100
C796        C  0.13374357  0.73249584  0.63582322    -0.24300
H797        H  0.12589786  0.68382717  0.33465523     0.09200
H798        H  0.14719918  0.71923510  0.40745929     0.12700
H799        H  0.06344608  0.64275193  0.45812424     0.11400
H800        H  0.06265863  0.66221734  0.55539215     0.12600
H801        H  0.08525127  0.69396716  0.63700222     0.11700
H802        H  0.16809008  0.74483102  0.48037745     0.08700
H803        H  0.19123359  0.77105103  0.56793254     0.12000
H804        H  0.12441828  0.72908226  0.67975890     0.13900
C805        C  0.41560702  0.24056531  0.19249690    -0.01600
C806        C  0.41408072  0.25181471  0.13847047    -0.09600
C807        C  0.41222578  0.27425363  0.14018450    -0.18500
C808        C  0.41164774  0.28610348  0.19636807     0.03900
C809        C  0.41491921  0.27552714  0.25074857     0.18100
C810        C  0.41704872  0.25320794  0.24829972    -0.19900
C811        C  0.41498375  0.28662527  0.30765231    -0.21200
C812        C  0.41055008  0.30726863  0.31209232    -0.19700
C813        C  0.40593276  0.31732196  0.25974569     0.19500
C814        C  0.40700677  0.30738663  0.20094664     0.01600
C815        C  0.40243849  0.31862242  0.14975977    -0.14500
C816        C  0.39596302  0.33806353  0.15700158    -0.12200
C817        C  0.39380279  0.34689809  0.21528259     0.01100
C818        C  0.39945910  0.33678933  0.26625579    -0.24300
H819        H  0.41333191  0.24274042  0.09460079     0.09200
H820        H  0.41052890  0.28143088  0.09688109     0.12700
H821        H  0.41873923  0.24507309  0.29050154     0.11400
H822        H  0.41776626  0.27882254  0.34920117     0.12600
H823        H  0.41005091  0.31499009  0.35697984     0.11700
H824        H  0.40318950  0.31242842  0.10363358     0.08700
H825        H  0.39189539  0.34566188  0.11682761     0.12000
H826        H  0.39830882  0.34373925  0.31162948     0.13900
C827        C  0.40119533  0.16359693  0.30121720    -0.01600
C828        C  0.38082364  0.13821645  0.30447265    -0.09600
C829        C  0.37883494  0.12317168  0.35384995    -0.18500
C830        C  0.39786652  0.13288373  0.40074967     0.03900
C831        C  0.41799741  0.15907919  0.39827791     0.18100
C832        C  0.41918736  0.17432063  0.34923179    -0.19900
C833        C  0.43748681  0.16949625  0.44313890    -0.21200
C834        C  0.43804005  0.15417229  0.48912285    -0.19700
C835        C  0.41901500  0.12810070  0.49159337     0.19500
C836        C  0.39833155  0.11722047  0.44823103     0.01600
C837        C  0.37957275  0.09083602  0.45283009    -0.14500
C838        C  0.38199997  0.07562716  0.49642252    -0.12200
C839        C  0.40290989  0.08613488  0.53760428     0.01100
C840        C  0.42101746  0.11259609  0.53595782    -0.24300
H841        H  0.36664483  0.12977395  0.26776624     0.09200
H842        H  0.36270119  0.10375317  0.35261323     0.12700
H843        H  0.43507800  0.19398031  0.34635440     0.11400
H844        H  0.45283573  0.18944644  0.44164742     0.12600
H845        H  0.45379121  0.16263247  0.52219324     0.11700
H846        H  0.36302998  0.08115306  0.42271143     0.08700
H847        H  0.36753014  0.05533621  0.49718962     0.12000
H848        H  0.43729345  0.12095400  0.56762577     0.13900
C849        C  0.40866723  0.16415742  0.08015329    -0.01600
C850        C  0.41982813  0.17754798  0.02689311    -0.09600
C851        C  0.42275788  0.16478107  0.97572483    -0.18500
C852        C  0.41465067  0.13811437  0.97652648     0.03900
C853        C  0.40221832  0.12449936  0.02975602     0.18100
C854        C  0.39922920  0.13747445  0.08029445    -0.19900
C855        C  0.39349249  0.09809239  0.03326838    -0.21200
C856        C  0.39765994  0.08493897  0.98576804    -0.19700
C857        C  0.41060363  0.09785977  0.93356049     0.19500
C858        C  0.41895298  0.12453942  0.92745342     0.01600
C859        C  0.43193176  0.13650020  0.87336519    -0.14500
C860        C  0.43698246  0.12266700  0.82834614    -0.12200
C861        C  0.42933952  0.09670289  0.83604781     0.01100
C862        C  0.41597290  0.08434654  0.88823024    -0.24300
H863        H  0.42709377  0.19812495  0.02535386     0.09200
H864        H  0.43190824  0.17639296  0.93676243     0.12700
H865        H  0.39009986  0.12672629  0.12076653     0.11400
H866        H  0.38384386  0.08762751  0.07365743     0.12600
H867        H  0.39114051  0.06459859  0.99041196     0.11700
H868        H  0.43893051  0.15660169  0.86520119     0.08700
H869        H  0.44785393  0.13255339  0.78854893     0.12000
H870        H  0.41040594  0.06428185  0.89425843     0.13900
loop_ 
_geom_bond_atom_site_label_1 
_geom_bond_atom_site_label_2 
_geom_bond_distance 
_geom_bond_site_symmetry_2 
_ccdc_geom_bond_type 
C1            N2   1.362       .  A
C1            N6   1.365       .  A
C1          C805   1.486       .  S
N2            C3   1.355       .  A
C3            N4   1.352       .  A
C3          C827   1.468       .  S
N4            C5   1.355       .  A
C5            N6   1.362       .  A
C5          C849   1.483       .  S
C7            N8   1.363       .  A
C7           N12   1.362       .  A
C7          C739   1.486       .  S
N8            C9   1.360       .  A
C9           N10   1.358       .  A
C9          C761   1.477       .  S
N10          C11   1.357       .  A
C11          N12   1.359       .  A
C11         C795   1.486       .  S
C13          N14   1.363       .  A
C13          N18   1.362       .  A
C13         C673   1.474       .  S
N14          C15   1.354       .  A
C15          N16   1.348       .  A
C15         C707   1.462       .  S
N16          C17   1.349       .  A
C17          N18   1.355       .  A
C17         C729   1.471       .  S
C19          N20   1.360       .  A
C19          N24   1.372       .  A
C19         C619   1.489       .  S
N20          C21   1.351       .  A
C21          N22   1.352       .  A
C21         C629   1.468       .  S
N22          C23   1.356       .  A
C23          N24   1.367       .  A
C23         C651   1.494       .  S
C25          N26   1.368       .  A
C25          N30   1.361       .  A
C25         C541   1.489       .  S
N26          C27   1.363       .  A
C27          N28   1.355       .  A
C27         C597   1.476       .  S
N28          C29   1.353       .  A
C29          N30   1.355       .  A
C29         C563   1.479       .  S
C31          N32   1.371       .  A
C31          N36   1.367       .  A
C31         C487   1.492       .  S
N32          C33   1.362       .  A
C33          N34   1.351       .  A
C33         C519   1.488       .  S
N34          C35   1.352       .  A
C35          N36   1.358       .  A
C35         C509   1.482       .  S
O37         Ni43   1.927       .  S
O37          C58   1.271       .  A
O38         Ni61   1.913       .  S
O38          C47   1.269       .  A
O39         Ni43   1.916       .  S
O39         Ni61   1.918       .  S
O39         Ni55   1.915       .  S
O39          H62   0.966       .  S
C40         C421   1.483       .  S
C40          O57   1.270       .  A
C40          O49   1.277       .  A
O41         Ni60   1.930       .  S
O41          C47   1.271       .  A
O42         Ni60   1.898       .  S
O42          C44   1.266       .  A
Ni43         O46   1.928       .  S
Ni43         O48   1.908       .  S
C44         C717   1.459       .  S
C44          O54   1.268       .  A
O45         Ni61   1.922       .  S
O45          C51   1.274       .  A
O46          C51   1.274       .  A
C47         C431   1.483       .  S
O48          C50   1.270       .  A
O49         Ni60   1.934       .  S
C50         C453   1.488       .  S
C50          O56   1.276       .  A
C51         C475   1.490   1_655  S
H52          O53   0.965       .  S
O53         Ni61   1.913       .  S
O53         Ni55   1.904       .  S
O53         Ni60   1.915       .  S
O54         Ni55   1.919       .  S
Ni55         O59   1.891       .  S
Ni55         O57   1.899       .  S
O56         Ni61   1.944       .  S
C58         C695   1.472       .  S
C58          O59   1.261       .  A
O63         Ni69   1.913       .  S
O63          C84   1.270       .  A
O64         Ni87   1.932       .  S
O64          C73   1.273       .  A
O65         Ni69   1.912       .  S
O65         Ni87   1.924       .  S
O65         Ni81   1.935       .  S
O65          H88   0.966       .  S
C66         C399   1.482       .  S
C66          O83   1.276       .  A
C66          O75   1.278       .  A
O67         Ni86   1.918       .  S
O67          C73   1.267       .  A
O68         Ni86   1.904       .  S
O68          C70   1.267       .  A
Ni69         O72   1.923   1_455  S
Ni69         O74   1.907       .  S
C70         C783   1.474       .  S
C70          O80   1.270       .  A
O71         Ni87   1.929   1_655  S
O71          C77   1.275       .  A
O72          C77   1.270       .  A
C73         C465   1.489       .  S
O74          C76   1.272       .  A
O75         Ni86   1.923       .  S
C76         C443   1.486       .  S
C76          O82   1.279       .  A
C77         C553   1.491       .  S
H78          O79   0.966       .  S
O79         Ni87   1.911       .  S
O79         Ni81   1.904       .  S
O79         Ni86   1.905       .  S
O80         Ni81   1.928       .  S
Ni81         O85   1.916       .  S
Ni81         O83   1.917       .  S
O82         Ni87   1.949       .  S
C84         C773   1.482       .  S
C84          O85   1.267       .  A
O89         Ni95   1.925       .  S
O89         C110   1.272       .  A
O90        Ni113   1.923       .  S
O90          C99   1.270       .  A
O91         Ni95   1.918       .  S
O91        Ni113   1.919       .  S
O91        Ni107   1.933       .  S
O91         H114   0.966       .  S
C92         C321   1.482       .  S
C92         O109   1.276       .  A
C92         O101   1.277       .  A
O93        Ni112   1.920       .  S
O93          C99   1.268       .  A
O94        Ni112   1.896       .  S
O94          C96   1.265       .  A
Ni95         O98   1.933   1_545  S
Ni95        O100   1.900       .  S
C96         C861   1.465       .  S
C96         O106   1.271       .  A
O97        Ni113   1.912   1_565  S
O97         C103   1.269       .  A
O98         C103   1.273       .  A
C99         C355   1.481   1_545  S
O100        C102   1.271       .  A
O101       Ni112   1.917       .  S
C102        C365   1.483   1_545  S
C102        O108   1.280       .  A
C103        C751   1.480       .  S
H104        O105   0.967       .  S
O105       Ni113   1.904       .  S
O105       Ni107   1.897       .  S
O105       Ni112   1.901       .  S
O106       Ni107   1.929       .  S
Ni107       O111   1.900       .  S
Ni107       O109   1.919       .  S
O108       Ni113   1.948       .  S
C110        C839   1.480       .  S
C110        O111   1.267       .  A
O115       Ni121   1.917       .  S
O115        C136   1.272       .  A
O116       Ni139   1.919       .  S
O116        C125   1.266       .  A
O117       Ni121   1.917       .  S
O117       Ni139   1.917       .  S
O117       Ni133   1.924       .  S
O117        H140   0.963       .  S
C118        C299   1.471       .  S
C118        O135   1.278       .  A
C118        O127   1.278       .  A
O119       Ni138   1.912       .  S
O119        C125   1.265       .  A
O120       Ni138   1.902       .  S
O120        C122   1.266       .  A
Ni121       O124   1.929       .  S
Ni121       O126   1.912       .  S
C122        C663   1.480       .  S
C122        O132   1.273       .  A
O123       Ni139   1.888       .  S
O123        C129   1.266       .  A
O124        C129   1.273       .  A
C125        C377   1.476       .  S
O126        C128   1.270       .  A
O127       Ni138   1.905       .  S
C128        C343   1.488       .  S
C128        O134   1.275       .  A
C129        C685   1.470   1_565  S
H130        O131   0.964       .  S
O131       Ni139   1.894       .  S
O131       Ni133   1.896       .  S
O131       Ni138   1.895       .  S
O132       Ni133   1.941       .  S
Ni133       O137   1.906       .  S
Ni133       O135   1.914       .  S
O134       Ni139   1.943       .  S
C136        C641   1.474       .  S
C136        O137   1.267       .  A
C141        C333   1.477       .  S
C141        C142   1.402       .  A
C141        C146   1.402       .  A
C142        C143   1.407       .  A
C142        H147   1.083       .  S
C143        C277   1.483       .  S
C143        C144   1.406       .  A
C144        C145   1.401       .  A
C144        H148   1.084       .  S
C145        C409   1.474       .  S
C145        C146   1.398       .  A
C146        H149   1.084       .  S
C150        C311   1.479       .  S
C150        C151   1.403       .  A
C150        C155   1.406       .  A
C151        C152   1.401       .  A
C151        H156   1.083       .  S
C152        C387   1.484       .  S
C152        C153   1.404       .  A
C153        C154   1.405       .  A
C153        H157   1.082       .  S
C154        C267   1.491       .  S
C154        C155   1.406       .  A
C155        H158   1.083       .  S
O159       Ni165   1.917       .  S
O159        C180   1.266       .  A
O160       Ni183   1.918       .  S
O160        C169   1.271       .  A
O161       Ni165   1.903       .  S
O161       Ni183   1.904       .  S
O161       Ni177   1.905       .  S
O161        H184   0.966       .  S
C162        C817   1.486       .  S
C162        O179   1.269       .  A
C162        O171   1.272       .  A
O163       Ni182   1.923       .  S
O163        C169   1.273       .  A
O164       Ni182   1.904       .  S
O164        C166   1.272       .  A
Ni165       O168   1.911       .  S
Ni165       O170   1.901       .  S
C166        C223   1.486       .  S
C166        O176   1.279       .  A
O167       Ni183   1.939       .  S
O167        C173   1.283       .  A
O168        C173   1.277       .  A
C169        C531   1.491       .  S
O170        C172   1.266       .  A
O171       Ni182   1.932       .  S
C172        C497   1.468       .  S
C172        O178   1.268       .  A
C173        C255   1.487       .  S
H174        O175   0.967       .  S
O175       Ni183   1.944       .  S
O175       Ni177   1.926       .  S
O175       Ni182   1.916       .  S
O176       Ni177   1.948       .  S
Ni177       O181   1.929       .  S
Ni177       O179   1.915       .  S
O178       Ni183   1.925       .  S
C180        C233   1.487       .  S
C180        O181   1.270       .  A
O185       Ni191   1.918       .  S
O185        C206   1.270       .  A
O186       Ni209   1.925       .  S
O186        C195   1.272       .  A
O187       Ni191   1.917       .  S
O187       Ni209   1.925       .  S
O187       Ni203   1.927       .  S
O187        H210   0.967       .  S
C188        C289   1.477       .  S
C188        O205   1.274       .  A
C188        O197   1.277       .  A
O189       Ni208   1.924       .  S
O189        C195   1.269       .  A
O190       Ni208   1.904       .  S
O190        C192   1.267       .  A
Ni191       O194   1.923       .  S
Ni191       O196   1.899       .  S
C192        C585   1.467       .  S
C192        O202   1.271       .  A
O193       Ni209   1.921       .  S
O193        C199   1.272       .  A
O194        C199   1.271       .  A
C195        C245   1.489       .  S
O196        C198   1.269       .  A
O197       Ni208   1.921       .  S
C198        C211   1.484       .  S
C198        O204   1.278       .  A
C199        C607   1.482       .  S
H200        O201   0.965       .  S
O201       Ni209   1.908       .  S
O201       Ni203   1.904       .  S
O201       Ni208   1.908       .  S
O202       Ni203   1.929       .  S
Ni203       O207   1.908       .  S
Ni203       O205   1.912       .  S
O204       Ni209   1.948       .  S
C206        C575   1.484       .  S
C206        O207   1.267       .  A
C211        C212   1.401       .  A
C211        C216   1.404       .  A
C212        C213   1.397       .  A
C212        H225   1.083       .  S
C213        C214   1.416       .  A
C213        H226   1.077       .  S
C214        C220   1.431       .  A
C214        C215   1.421       .  A
C215        C217   1.400       .  A
C215        C216   1.404       .  A
C216        H227   1.084       .  S
C217        C218   1.390       .  A
C217        H228   1.084       .  S
C218        C219   1.399       .  A
C218        H229   1.084       .  S
C219        C220   1.423       .  A
C219        C224   1.406       .  A
C220        C221   1.414       .  A
C221        C222   1.396       .  A
C221        H230   1.077       .  S
C222        C223   1.403       .  A
C222        H231   1.083       .  S
C223        C224   1.403       .  A
C224        H232   1.084       .  S
C233        C234   1.403   1_554  A
C233        C238   1.403       .  A
C234        C235   1.396       .  A
C234        H247   1.083       .  S
C235        C236   1.413       .  A
C235        H248   1.077       .  S
C236        C242   1.434       .  A
C236        C237   1.424   1_556  A
C237        C239   1.400       .  A
C237        C238   1.411       .  A
C238        H249   1.084       .  S
C239        C240   1.392   1_554  A
C239        H250   1.084       .  S
C240        C241   1.401       .  A
C240        H251   1.084   1_556  S
C241        C242   1.421       .  A
C241        C246   1.408       .  A
C242        C243   1.417       .  A
C243        C244   1.400       .  A
C243        H252   1.077       .  S
C244        C245   1.401       .  A
C244        H253   1.083       .  S
C245        C246   1.406       .  A
C246        H254   1.084       .  S
C255        C256   1.401       .  A
C255        C260   1.405       .  A
C256        C257   1.403       .  A
C256        H269   1.083       .  S
C257        C258   1.419       .  A
C257        H270   1.077       .  S
C258        C264   1.432       .  A
C258        C259   1.420       .  A
C259        C261   1.400       .  A
C259        C260   1.401       .  A
C260        H271   1.084       .  S
C261        C262   1.388       .  A
C261        H272   1.084       .  S
C262        C263   1.398       .  A
C262        H273   1.084       .  S
C263        C264   1.424       .  A
C263        C268   1.405       .  A
C264        C265   1.413       .  A
C265        C266   1.397       .  A
C265        H274   1.077       .  S
C266        C267   1.404       .  A
C266        H275   1.083       .  S
C267        C268   1.402       .  A
C268        H276   1.084       .  S
C277        C278   1.401       .  A
C277        C282   1.401       .  A
C278        C279   1.396       .  A
C278        H291   1.083       .  S
C279        C280   1.414       .  A
C279        H292   1.077       .  S
C280        C286   1.428       .  A
C280        C281   1.422       .  A
C281        C283   1.398       .  A
C281        C282   1.401       .  A
C282        H293   1.084       .  S
C283        C284   1.387       .  A
C283        H294   1.084       .  S
C284        C285   1.398       .  A
C284        H295   1.084       .  S
C285        C286   1.422       .  A
C285        C290   1.400       .  A
C286        C287   1.416       .  A
C287        C288   1.397       .  A
C287        H296   1.077       .  S
C288        C289   1.401       .  A
C288        H297   1.084       .  S
C289        C290   1.400       .  A
C290        H298   1.085       .  S
C299        C300   1.399       .  A
C299        C304   1.400       .  A
C300        C301   1.395       .  A
C300        H313   1.083       .  S
C301        C302   1.416       .  A
C301        H314   1.077       .  S
C302        C308   1.425       .  A
C302        C303   1.420       .  A
C303        C305   1.398       .  A
C303        C304   1.394       .  A
C304        H315   1.085       .  S
C305        C306   1.385       .  A
C305        H316   1.084       .  S
C306        C307   1.398       .  A
C306        H317   1.084       .  S
C307        C308   1.423       .  A
C307        C312   1.400       .  A
C308        C309   1.413       .  A
C309        C310   1.394       .  A
C309        H318   1.077       .  S
C310        C311   1.399       .  A
C310        H319   1.083       .  S
C311        C312   1.400       .  A
C312        H320   1.085       .  S
C321        C322   1.401       .  A
C321        C326   1.405       .  A
C322        C323   1.389       .  A
C322        H335   1.083       .  S
C323        C324   1.412       .  A
C323        H336   1.076       .  S
C324        C330   1.425       .  A
C324        C325   1.422       .  A
C325        C327   1.401       .  A
C325        C326   1.407       .  A
C326        H337   1.084       .  S
C327        C328   1.392       .  A
C327        H338   1.084       .  S
C328        C329   1.400       .  A
C328        H339   1.084       .  S
C329        C330   1.423       .  A
C329        C334   1.406       .  A
C330        C331   1.413       .  A
C331        C332   1.389       .  A
C331        H340   1.076       .  S
C332        C333   1.399       .  A
C332        H341   1.084       .  S
C333        C334   1.401       .  A
C334        H342   1.084       .  S
C343        C344   1.402       .  A
C343        C348   1.405       .  A
C344        C345   1.396       .  A
C344        H357   1.083       .  S
C345        C346   1.415   1_554  A
C345        H358   1.077       .  S
C346        C352   1.431       .  A
C346        C347   1.421       .  A
C347        C349   1.401       .  A
C347        C348   1.409   1_556  A
C348        H359   1.084   1_554  S
C349        C350   1.392       .  A
C349        H360   1.084       .  S
C350        C351   1.400       .  A
C350        H361   1.084       .  S
C351        C352   1.424       .  A
C351        C356   1.410       .  A
C352        C353   1.413       .  A
C353        C354   1.394   1_565  A
C353        H362   1.077   1_566  S
C354        C355   1.402   1_545  A
C354        H363   1.084       .  S
C355        C356   1.401       .  A
C356        H364   1.084       .  S
C365        C366   1.403   1_565  A
C365        C370   1.401       .  A
C366        C367   1.397       .  A
C366        H379   1.083       .  S
C367        C368   1.414   1_545  A
C367        H380   1.077       .  S
C368        C374   1.430       .  A
C368        C369   1.423       .  A
C369        C371   1.398       .  A
C369        C370   1.403       .  A
C370        H381   1.084       .  S
C371        C372   1.387       .  A
C371        H382   1.084       .  S
C372        C373   1.398       .  A
C372        H383   1.084       .  S
C373        C374   1.421       .  A
C373        C378   1.400       .  A
C374        C375   1.417       .  A
C375        C376   1.400       .  A
C375        H384   1.078   1_565  S
C376        C377   1.400       .  A
C376        H385   1.083       .  S
C377        C378   1.400       .  A
C378        H386   1.085       .  S
C387        C388   1.400       .  A
C387        C392   1.404       .  A
C388        C389   1.392       .  A
C388        H401   1.083       .  S
C389        C390   1.414       .  A
C389        H402   1.076       .  S
C390        C396   1.427       .  A
C390        C391   1.422       .  A
C391        C393   1.400       .  A
C391        C392   1.405       .  A
C392        H403   1.084       .  S
C393        C394   1.391       .  A
C393        H404   1.084       .  S
C394        C395   1.400       .  A
C394        H405   1.084       .  S
C395        C396   1.422       .  A
C395        C400   1.407       .  A
C396        C397   1.413       .  A
C397        C398   1.392       .  A
C397        H406   1.076       .  S
C398        C399   1.401       .  A
C398        H407   1.083       .  S
C399        C400   1.404       .  A
C400        H408   1.084       .  S
C409        C410   1.398       .  A
C409        C414   1.398       .  A
C410        C411   1.396       .  A
C410        H423   1.084       .  S
C411        C412   1.417       .  A
C411        H424   1.077       .  S
C412        C418   1.428       .  A
C412        C413   1.422       .  A
C413        C415   1.398       .  A
C413        C414   1.401       .  A
C414        H425   1.085       .  S
C415        C416   1.388       .  A
C415        H426   1.084       .  S
C416        C417   1.399       .  A
C416        H427   1.084       .  S
C417        C418   1.423       .  A
C417        C422   1.404       .  A
C418        C419   1.413       .  A
C419        C420   1.394       .  A
C419        H428   1.077       .  S
C420        C421   1.404       .  A
C420        H429   1.083       .  S
C421        C422   1.401       .  A
C422        H430   1.084       .  S
C431        C432   1.401       .  A
C431        C436   1.402       .  A
C432        C433   1.400       .  A
C432        H445   1.083       .  S
C433        C434   1.416       .  A
C433        H446   1.077   1_655  S
C434        C440   1.432   1_656  A
C434        C435   1.422       .  A
C435        C437   1.399   1_556  A
C435        C436   1.404       .  A
C436        H447   1.085       .  S
C437        C438   1.389       .  A
C437        H448   1.084       .  S
C438        C439   1.399       .  A
C438        H449   1.084       .  S
C439        C440   1.423   1_655  A
C439        C444   1.405   1_655  A
C440        C441   1.415       .  A
C441        C442   1.399       .  A
C441        H450   1.077   1_554  S
C442        C443   1.403       .  A
C442        H451   1.083       .  S
C443        C444   1.403       .  A
C444        H452   1.084   1_455  S
C453        C454   1.403       .  A
C453        C458   1.404       .  A
C454        C455   1.398       .  A
C454        H467   1.083       .  S
C455        C456   1.414       .  A
C455        H468   1.077       .  S
C456        C462   1.434       .  A
C456        C457   1.424       .  A
C457        C459   1.399       .  A
C457        C458   1.408       .  A
C458        H469   1.085       .  S
C459        C460   1.391   1_655  A
C459        H470   1.084   1_655  S
C460        C461   1.401   1_455  A
C460        H471   1.084       .  S
C461        C462   1.421       .  A
C461        C466   1.406   1_655  A
C462        C463   1.418       .  A
C463        C464   1.402       .  A
C463        H472   1.077       .  S
C464        C465   1.401   1_655  A
C464        H473   1.083       .  S
C465        C466   1.406       .  A
C466        H474   1.084       .  S
C475        C476   1.403       .  A
C475        C480   1.404       .  A
C476        C477   1.405       .  A
C476        H489   1.083       .  S
C477        C478   1.419       .  A
C477        H490   1.078       .  S
C478        C484   1.436       .  A
C478        C479   1.421       .  A
C479        C481   1.399       .  A
C479        C480   1.402       .  A
C480        H491   1.084       .  S
C481        C482   1.387       .  A
C481        H492   1.084       .  S
C482        C483   1.398       .  A
C482        H493   1.084       .  S
C483        C484   1.424       .  A
C483        C488   1.406       .  A
C484        C485   1.414       .  A
C485        C486   1.402       .  A
C485        H494   1.078       .  S
C486        C487   1.406       .  A
C486        H495   1.083       .  S
C487        C488   1.402       .  A
C488        H496   1.084       .  S
C497        C498   1.400       .  A
C497        C502   1.394       .  A
C498        C499   1.402       .  A
C498        H511   1.084       .  S
C499        C500   1.416       .  A
C499        H512   1.078       .  S
C500        C506   1.432   1_554  A
C500        C501   1.425   1_554  A
C501        C503   1.396       .  A
C501        C502   1.399   1_556  A
C502        H513   1.085       .  S
C503        C504   1.384       .  A
C503        H514   1.084       .  S
C504        C505   1.398       .  A
C504        H515   1.084       .  S
C505        C506   1.421       .  A
C505        C510   1.396       .  A
C506        C507   1.419       .  A
C507        C508   1.405       .  A
C507        H516   1.078   1_556  S
C508        C509   1.401       .  A
C508        H517   1.083       .  S
C509        C510   1.401       .  A
C510        H518   1.085       .  S
C519        C520   1.403       .  A
C519        C524   1.406       .  A
C520        C521   1.390       .  A
C520        H533   1.084       .  S
C521        C522   1.411       .  A
C521        H534   1.077       .  S
C522        C528   1.430       .  A
C522        C523   1.423       .  A
C523        C525   1.402       .  A
C523        C524   1.417       .  A
C524        H535   1.084       .  S
C525        C526   1.398       .  A
C525        H536   1.084       .  S
C526        C527   1.402       .  A
C526        H537   1.084       .  S
C527        C528   1.421       .  A
C527        C532   1.415       .  A
C528        C529   1.412       .  A
C529        C530   1.391       .  A
C529        H538   1.077       .  S
C530        C531   1.403       .  A
C530        H539   1.083       .  S
C531        C532   1.408       .  A
C532        H540   1.084       .  S
C541        C542   1.405       .  A
C541        C546   1.402       .  A
C542        C543   1.397       .  A
C542        H555   1.083       .  S
C543        C544   1.412       .  A
C543        H556   1.077       .  S
C544        C550   1.434       .  A
C544        C545   1.425       .  A
C545        C547   1.398       .  A
C545        C546   1.408       .  A
C546        H557   1.084       .  S
C547        C548   1.389       .  A
C547        H558   1.084       .  S
C548        C549   1.401       .  A
C548        H559   1.084       .  S
C549        C550   1.419       .  A
C549        C554   1.402       .  A
C550        C551   1.419       .  A
C551        C552   1.404       .  A
C551        H560   1.077       .  S
C552        C553   1.401       .  A
C552        H561   1.083       .  S
C553        C554   1.408       .  A
C554        H562   1.084       .  S
C563        C564   1.401       .  A
C563        C568   1.400       .  A
C564        C565   1.399       .  A
C564        H577   1.083       .  S
C565        C566   1.416       .  A
C565        H578   1.078       .  S
C566        C572   1.431       .  A
C566        C567   1.423       .  A
C567        C569   1.398       .  A
C567        C568   1.400       .  A
C568        H579   1.085       .  S
C569        C570   1.386       .  A
C569        H580   1.084       .  S
C570        C571   1.399       .  A
C570        H581   1.084       .  S
C571        C572   1.421       .  A
C571        C576   1.399       .  A
C572        C573   1.417       .  A
C573        C574   1.401       .  A
C573        H582   1.078       .  S
C574        C575   1.402       .  A
C574        H583   1.083       .  S
C575        C576   1.403       .  A
C576        H584   1.084       .  S
C585        C586   1.395       .  A
C585        C590   1.400       .  A
C586        C587   1.397       .  A
C586        H599   1.084       .  S
C587        C588   1.418       .  A
C587        H600   1.077       .  S
C588        C594   1.429       .  A
C588        C589   1.421       .  A
C589        C591   1.401       .  A
C589        C590   1.406       .  A
C590        H601   1.085       .  S
C591        C592   1.393       .  A
C591        H602   1.084       .  S
C592        C593   1.400       .  A
C592        H603   1.084       .  S
C593        C594   1.424       .  A
C593        C598   1.411       .  A
C594        C595   1.411       .  A
C595        C596   1.393   1_556  A
C595        H604   1.078       .  S
C596        C597   1.399       .  A
C596        H605   1.084       .  S
C597        C598   1.401   1_554  A
C598        H606   1.084       .  S
C607        C608   1.403       .  A
C607        C612   1.402       .  A
C608        C609   1.393       .  A
C608        H621   1.084       .  S
C609        C610   1.410       .  A
C609        H622   1.077       .  S
C610        C616   1.430       .  A
C610        C611   1.425       .  A
C611        C613   1.399       .  A
C611        C612   1.411       .  A
C612        H623   1.084       .  S
C613        C614   1.392       .  A
C613        H624   1.084       .  S
C614        C615   1.402       .  A
C614        H625   1.084       .  S
C615        C616   1.419       .  A
C615        C620   1.405       .  A
C616        C617   1.418       .  A
C617        C618   1.400       .  A
C617        H626   1.077       .  S
C618        C619   1.399       .  A
C618        H627   1.083       .  S
C619        C620   1.409       .  A
C620        H628   1.084       .  S
C629        C630   1.400       .  A
C629        C634   1.394       .  A
C630        C631   1.402       .  A
C630        H643   1.083       .  S
C631        C632   1.416       .  A
C631        H644   1.078       .  S
C632        C638   1.430       .  A
C632        C633   1.423       .  A
C633        C635   1.396       .  A
C633        C634   1.396       .  A
C634        H645   1.085       .  S
C635        C636   1.383       .  A
C635        H646   1.084       .  S
C636        C637   1.397       .  A
C636        H647   1.084       .  S
C637        C638   1.421       .  A
C637        C642   1.394   1_556  A
C638        C639   1.419   1_556  A
C639        C640   1.403       .  A
C639        H648   1.078       .  S
C640        C641   1.400       .  A
C640        H649   1.083       .  S
C641        C642   1.398       .  A
C642        H650   1.085       .  S
C651        C652   1.404       .  A
C651        C656   1.406       .  A
C652        C653   1.394       .  A
C652        H665   1.083       .  S
C653        C654   1.411       .  A
C653        H666   1.077       .  S
C654        C660   1.435       .  A
C654        C655   1.425       .  A
C655        C657   1.401       .  A
C655        C656   1.418       .  A
C656        H667   1.084       .  S
C657        C658   1.396       .  A
C657        H668   1.084       .  S
C658        C659   1.402       .  A
C658        H669   1.084       .  S
C659        C660   1.422       .  A
C659        C664   1.413       .  A
C660        C661   1.417       .  A
C661        C662   1.398       .  A
C661        H670   1.077       .  S
C662        C663   1.398       .  A
C662        H671   1.084       .  S
C663        C664   1.404       .  A
C664        H672   1.085       .  S
C673        C674   1.400       .  A
C673        C678   1.401       .  A
C674        C675   1.390       .  A
C674        H687   1.083       .  S
C675        C676   1.413       .  A
C675        H688   1.077       .  S
C676        C682   1.423       .  A
C676        C677   1.421       .  A
C677        C679   1.399       .  A
C677        C678   1.400       .  A
C678        H689   1.084       .  S
C679        C680   1.387       .  A
C679        H690   1.084       .  S
C680        C681   1.398       .  A
C680        H691   1.084       .  S
C681        C682   1.422       .  A
C681        C686   1.399       .  A
C682        C683   1.413       .  A
C683        C684   1.390       .  A
C683        H692   1.076       .  S
C684        C685   1.399       .  A
C684        H693   1.083       .  S
C685        C686   1.400       .  A
C686        H694   1.085       .  S
C695        C696   1.396       .  A
C695        C700   1.403       .  A
C696        C697   1.389       .  A
C696        H709   1.084       .  S
C697        C698   1.414       .  A
C697        H710   1.076       .  S
C698        C704   1.424       .  A
C698        C699   1.421       .  A
C699        C701   1.401       .  A
C699        C700   1.406       .  A
C700        H711   1.084       .  S
C701        C702   1.392       .  A
C701        H712   1.084       .  S
C702        C703   1.400       .  A
C702        H713   1.084       .  S
C703        C704   1.424       .  A
C703        C708   1.407       .  A
C704        C705   1.412       .  A
C705        C706   1.385       .  A
C705        H714   1.076       .  S
C706        C707   1.396       .  A
C706        H715   1.084       .  S
C707        C708   1.398       .  A
C708        H716   1.085       .  S
C717        C718   1.393       .  A
C717        C722   1.399       .  A
C718        C719   1.390       .  A
C718        H731   1.084       .  S
C719        C720   1.416       .  A
C719        H732   1.076       .  S
C720        C726   1.422       .  A
C720        C721   1.421       .  A
C721        C723   1.401       .  A
C721        C722   1.403       .  A
C722        H733   1.085       .  S
C723        C724   1.391       .  A
C723        H734   1.084       .  S
C724        C725   1.399       .  A
C724        H735   1.084       .  S
C725        C726   1.423       .  A
C725        C730   1.406   1_556  A
C726        C727   1.409   1_556  A
C727        C728   1.385       .  A
C727        H736   1.076       .  S
C728        C729   1.400       .  A
C728        H737   1.083       .  S
C729        C730   1.401       .  A
C730        H738   1.084       .  S
C739        C740   1.402       .  A
C739        C744   1.404       .  A
C740        C741   1.396       .  A
C740        H753   1.083       .  S
C741        C742   1.415       .  A
C741        H754   1.077       .  S
C742        C748   1.430       .  A
C742        C743   1.422       .  A
C743        C745   1.400       .  A
C743        C744   1.407       .  A
C744        H755   1.084       .  S
C745        C746   1.392       .  A
C745        H756   1.084       .  S
C746        C747   1.400       .  A
C746        H757   1.084       .  S
C747        C748   1.423       .  A
C747        C752   1.409       .  A
C748        C749   1.413       .  A
C749        C750   1.394       .  A
C749        H758   1.077       .  S
C750        C751   1.401       .  A
C750        H759   1.084       .  S
C751        C752   1.401       .  A
C752        H760   1.084       .  S
C761        C762   1.401       .  A
C761        C766   1.397       .  A
C762        C763   1.404       .  A
C762        H775   1.083       .  S
C763        C764   1.416       .  A
C763        H776   1.078       .  S
C764        C770   1.434   1_556  A
C764        C765   1.424       .  A
C765        C767   1.397       .  A
C765        C766   1.401       .  A
C766        H777   1.085       .  S
C767        C768   1.384       .  A
C767        H778   1.084       .  S
C768        C769   1.397   1_556  A
C768        H779   1.084       .  S
C769        C770   1.421       .  A
C769        C774   1.396       .  A
C770        C771   1.420       .  A
C771        C772   1.407       .  A
C771        H780   1.078       .  S
C772        C773   1.402       .  A
C772        H781   1.083       .  S
C773        C774   1.399       .  A
C774        H782   1.085       .  S
C783        C784   1.399       .  A
C783        C788   1.399       .  A
C784        C785   1.399       .  A
C784        H797   1.084       .  S
C785        C786   1.416       .  A
C785        H798   1.078       .  S
C786        C792   1.432       .  A
C786        C787   1.423       .  A
C787        C789   1.398       .  A
C787        C788   1.404       .  A
C788        H799   1.085       .  S
C789        C790   1.389       .  A
C789        H800   1.084       .  S
C790        C791   1.399       .  A
C790        H801   1.084       .  S
C791        C792   1.422       .  A
C791        C796   1.404       .  A
C792        C793   1.415       .  A
C793        C794   1.399       .  A
C793        H802   1.078       .  S
C794        C795   1.402       .  A
C794        H803   1.083       .  S
C795        C796   1.403       .  A
C796        H804   1.084       .  S
C805        C806   1.403       .  A
C805        C810   1.403       .  A
C806        C807   1.400       .  A
C806        H819   1.083       .  S
C807        C808   1.416       .  A
C807        H820   1.078       .  S
C808        C814   1.433       .  A
C808        C809   1.422       .  A
C809        C811   1.398       .  A
C809        C810   1.403       .  A
C810        H821   1.084       .  S
C811        C812   1.387       .  A
C811        H822   1.084       .  S
C812        C813   1.399       .  A
C812        H823   1.084       .  S
C813        C814   1.422       .  A
C813        C818   1.402       .  A
C814        C815   1.417       .  A
C815        C816   1.402       .  A
C815        H824   1.078       .  S
C816        C817   1.402       .  A
C816        H825   1.083       .  S
C817        C818   1.403       .  A
C818        H826   1.085       .  S
C827        C828   1.397       .  A
C827        C832   1.399       .  A
C828        C829   1.392       .  A
C828        H841   1.084       .  S
C829        C830   1.415       .  A
C829        H842   1.077       .  S
C830        C836   1.428       .  A
C830        C831   1.423       .  A
C831        C833   1.400       .  A
C831        C832   1.406       .  A
C832        H843   1.085       .  S
C833        C834   1.391       .  A
C833        H844   1.084       .  S
C834        C835   1.400       .  A
C834        H845   1.084       .  S
C835        C836   1.422       .  A
C835        C840   1.406       .  A
C836        C837   1.413       .  A
C837        C838   1.392       .  A
C837        H846   1.077       .  S
C838        C839   1.400       .  A
C838        H847   1.083       .  S
C839        C840   1.403       .  A
C840        H848   1.085       .  S
C849        C850   1.401       .  A
C849        C854   1.402       .  A
C850        C851   1.401   1_554  A
C850        H863   1.083       .  S
C851        C852   1.417       .  A
C851        H864   1.078       .  S
C852        C858   1.431       .  A
C852        C853   1.421   1_556  A
C853        C855   1.399       .  A
C853        C854   1.399       .  A
C854        H865   1.084       .  S
C855        C856   1.386   1_554  A
C855        H866   1.084       .  S
C856        C857   1.397       .  A
C856        H867   1.084       .  S
C857        C858   1.424       .  A
C857        C862   1.401       .  A
C858        C859   1.417       .  A
C859        C860   1.400       .  A
C859        H868   1.078       .  S
C860        C861   1.398       .  A
C860        H869   1.084       .  S
C861        C862   1.395       .  A
C862        H870   1.085       .  S
