geometry optimzed in LAMMPS
_audit_creation_date              2020-12-01 
_audit_creation_method            'lammps2cif' 
_symmetry_space_group_name_H-M    'P1' 
_symmetry_Int_Tables_number       1 
_symmetry_cell_setting            triclinic 
loop_ 
_symmetry_equiv_pos_as_xyz 
  x,y,z 
_cell_length_a                    58.9952931 
_cell_length_b                    59.123870213675325 
_cell_length_c                    58.916696591031915 
_cell_angle_alpha                 90.17605368780687 
_cell_angle_beta                  89.98786809560588 
_cell_angle_gamma                 90.49966539075072 
loop_ 
_atom_site_label 
_atom_site_type_symbol 
_atom_site_fract_x 
_atom_site_fract_y 
_atom_site_fract_z 
_atom_site_charge 
C1          C  0.54630306  0.90436948  0.73388307     0.80100
N2          N  0.52432374  0.89882637  0.72943178    -0.78200
C3          C  0.51848135  0.87759371  0.72279871     0.82500
N4          N  0.53481283  0.86172712  0.72128137    -0.78200
C5          C  0.55683125  0.86678638  0.72581378     0.82600
N6          N  0.56272043  0.88833609  0.73191238    -0.79900
C7          C  0.55064835  0.07065122  0.76370930     0.80100
N8          N  0.56743159  0.08620216  0.75935243    -0.78200
C9          C  0.56257888  0.10877809  0.76010148     0.82500
N10         N  0.54118908  0.11537781  0.76519650    -0.78200
C11         C  0.52452742  0.10019250  0.76964750     0.82600
N12         N  0.52941450  0.07787402  0.76888958    -0.79900
C13         C  0.89864549  0.73685224  0.56498931     0.80100
N14         N  0.88460736  0.73046717  0.58223534    -0.78200
C15         C  0.86479125  0.71949618  0.57742331     0.82500
N16         N  0.85928406  0.71488543  0.55551697    -0.78200
C17         C  0.87304027  0.72126953  0.53822549     0.82600
N18         N  0.89269248  0.73232327  0.54311455    -0.79900
C19         C  0.06260224  0.77056385  0.55873779     0.80100
N20         N  0.06876638  0.77292839  0.53659049    -0.78200
C21         C  0.09088466  0.77260288  0.53045084     0.82500
N22         N  0.10684373  0.76983405  0.54662116    -0.78200
C23         C  0.10116701  0.76726758  0.56878071     0.82600
N24         N  0.07888250  0.76767299  0.57492475    -0.79900
C25         C  0.56835327  0.73595122  0.42828357     0.80100
N26         N  0.57402026  0.73152777  0.45023323    -0.78200
C27         C  0.59536522  0.72540659  0.45584907     0.82500
N28         N  0.61115690  0.72420021  0.43929780    -0.78200
C29         C  0.60609917  0.72877121  0.41732284     0.82600
N30         N  0.58445205  0.73446726  0.41165252    -0.79900
C31         C  0.36350506  0.76540005  0.41694671     0.80100
N32         N  0.35717463  0.76793877  0.43898412    -0.78200
C33         C  0.37271909  0.76958781  0.45579301     0.82500
N34         N  0.39500249  0.76869832  0.45038893    -0.78200
C35         C  0.40189748  0.76625430  0.42848270     0.82600
N36         N  0.38603504  0.76459029  0.41161829    -0.79900
C37         C  0.71889986  0.56800510  0.87171384     0.80100
N38         N  0.71534017  0.54597287  0.86599118    -0.78200
C39         C  0.71342874  0.52965425  0.88191523     0.82500
N40         N  0.71510988  0.53560805  0.90407950    -0.78200
C41         C  0.71864791  0.55753911  0.91044785     0.82600
N42         N  0.72052334  0.57388832  0.89413152    -0.79900
C43         C  0.75797457  0.55770409  0.07548991     0.80100
N44         N  0.76275293  0.53584143  0.08104041    -0.78200
C45         C  0.77247071  0.53081727  0.10128892     0.82500
N46         N  0.77706146  0.54782511  0.11603786    -0.78200
C47         C  0.77209143  0.56961629  0.11114070     0.82600
N48         N  0.76255281  0.57465829  0.09069697    -0.79900
O49         O  0.62259862  0.34257846  0.79005615    -0.78600
C50         C  0.67724456  0.36979874  0.83087025     0.82400
O51         O  0.69016620  0.30552506  0.75943041    -0.79800
O52         O  0.71097718  0.30700878  0.83871097    -0.81200
O53         O  0.63087683  0.28845170  0.85127588    -0.81000
O54         O  0.60723323  0.31159671  0.80521876    -0.79700
Zn55       Zn  0.65669577  0.33876703  0.79430218     1.55700
O56         O  0.66150867  0.30518245  0.86598712    -0.81100
Cd57       Cd  0.63482894  0.29367312  0.81651570     1.59700
Cd58       Cd  0.68410459  0.28980287  0.79099039     1.59600
O59         O  0.63387514  0.26296076  0.79964530    -0.81100
O60         O  0.66358227  0.31035206  0.80953364    -1.91600
Cd61       Cd  0.67850835  0.31863309  0.83866929     1.59900
O62         O  0.66827001  0.25812948  0.78460883    -0.81000
O63         O  0.68124325  0.35314077  0.84384793    -0.79700
C64         C  0.68429503  0.32501968  0.75223221     0.82900
C65         C  0.60528198  0.33054044  0.79519768     0.82500
O66         O  0.66849383  0.36672654  0.81129288    -0.78600
C67         C  0.64301913  0.29415514  0.86832745     0.83300
O68         O  0.67204452  0.33830051  0.76399737    -0.78700
C69         C  0.64800680  0.25118743  0.78839227     0.83500
C70         C  0.72320989  0.29451555  0.82615637     0.83800
O71         O  0.71560704  0.28556104  0.80781177    -0.81100
O72         O  0.27795212  0.84881069  0.64428840    -0.78600
C73         C  0.31975193  0.79491685  0.61661680     0.82400
O74         O  0.24863289  0.78004031  0.67929524    -0.79800
O75         O  0.32821587  0.75961663  0.68186033    -0.81200
O76         O  0.34075644  0.84003032  0.69663915    -0.81000
O77         O  0.29520633  0.86390468  0.67428785    -0.79700
Zn78       Zn  0.28329248  0.81495780  0.64739828     1.55700
O79         O  0.35517636  0.80943245  0.68013719    -0.81100
Cd80       Cd  0.30617928  0.83598038  0.69195529     1.59700
Cd81       Cd  0.27954615  0.78708219  0.69550951     1.59600
O82         O  0.29030652  0.83631878  0.72307503    -0.81100
O83         O  0.29874774  0.80733800  0.67548359    -1.91600
Cd84       Cd  0.32754002  0.79157629  0.66791427     1.59900
O85         O  0.27302245  0.80270437  0.72664477    -0.81000
O86         O  0.33183790  0.78857152  0.63329389    -0.79700
C87         C  0.24185815  0.78579217  0.65956098     0.82900
C88         C  0.28413302  0.86605486  0.65587831     0.82500
O89         O  0.30100146  0.80501855  0.61970432    -0.78600
C90         C  0.35767562  0.82808634  0.69078231     0.83300
O91         O  0.25361217  0.79851978  0.64662409    -0.78700
C92         C  0.27830140  0.82226187  0.73430056     0.83500
C93         C  0.31511211  0.74870921  0.69515831     0.83800
O94         O  0.29630343  0.75669715  0.70214272    -0.81100
C95         C  0.05004490  0.56458145  0.28517109     0.80100
N96         N  0.02855702  0.57021745  0.29129169    -0.78200
C97         C  0.02259330  0.59209924  0.29428975     0.82500
N98         N  0.03834770  0.60851155  0.29093099    -0.78200
C99         C  0.05989946  0.60349666  0.28471846     0.82600
N100        N  0.06581310  0.58137327  0.28180422    -0.79900
C101        C  0.05657305  0.40232483  0.23460373     0.80100
N102        N  0.07465546  0.38969369  0.22769050    -0.78200
C103        C  0.07099050  0.36945037  0.21704078     0.82500
N104        N  0.04948136  0.36212666  0.21336394    -0.78200
C105        C  0.03145541  0.37427082  0.22034257     0.82600
N106        N  0.03510501  0.39434789  0.23103385    -0.79900
O107        O  0.84561871  0.63413604  0.30755440    -0.78600
C108        C  0.78434185  0.61091460  0.33850412     0.82400
O109        O  0.78046266  0.66871316  0.26612620    -0.79800
O110        O  0.75711899  0.68053642  0.34666918    -0.81200
O111        O  0.83285396  0.69325501  0.36129314    -0.81000
O112        O  0.85989114  0.66620511  0.32128639    -0.79700
Zn113      Zn  0.81194288  0.63979189  0.30545052     1.55700
O114        O  0.80448534  0.67301471  0.37595281    -0.81100
Cd115      Cd  0.83141531  0.68522476  0.32717215     1.59700
Cd116      Cd  0.78450807  0.68668258  0.29688660     1.59600
O117        O  0.83397838  0.71400351  0.30803029    -0.81100
O118        O  0.80335535  0.66828556  0.31889849    -1.91600
Cd119      Cd  0.78646511  0.66205867  0.34752008     1.59900
O120        O  0.80152411  0.71710792  0.28878859    -0.81000
O121        O  0.77881220  0.62766682  0.35100382    -0.79700
C122        C  0.79048500  0.65077026  0.25943852     0.82900
C123        C  0.86249140  0.64612782  0.31395443     0.82500
O124        O  0.79639799  0.61368060  0.32078718    -0.78600
C125        C  0.82181811  0.68587575  0.37836247     0.83300
O126        O  0.80299695  0.63942920  0.27277288    -0.78700
C127        C  0.82125196  0.72445919  0.29417698     0.83500
C128        C  0.74621300  0.69213148  0.33214120     0.83800
O129        O  0.75328899  0.69503761  0.31182462    -0.81100
C130        C  0.90083086  0.24877192  0.92094335     0.80100
N131        N  0.89541091  0.25297512  0.94298002    -0.78200
C132        C  0.87617596  0.26414937  0.94847468     0.82500
N133        N  0.86210928  0.27086610  0.93162491    -0.78200
C134        C  0.86695631  0.26629084  0.90953388     0.82600
N135        N  0.88644076  0.25527155  0.90413146    -0.79900
C136        C  0.09999691  0.20000340  0.91191817     0.80100
N137        N  0.10506026  0.19339580  0.93333515    -0.78200
C138        C  0.08873079  0.18934046  0.94891213     0.82500
N139        N  0.06676050  0.19196336  0.94288089    -0.78200
C140        C  0.06108897  0.19845896  0.92145098     0.82600
N141        N  0.07782093  0.20257200  0.90585552    -0.79900
O142        O  0.79591583  0.35409225  0.13913956    -0.78600
C143        C  0.83064370  0.29469725  0.11095051     0.82400
O144        O  0.75728957  0.28799018  0.17086644    -0.79800
O145        O  0.83470625  0.25899062  0.17838331    -0.81200
O146        O  0.85610181  0.33625966  0.19205947    -0.81000
O147        O  0.81374747  0.36676537  0.16985513    -0.79700
Zn148      Zn  0.79712772  0.31983009  0.14158970     1.55700
O149        O  0.86750587  0.30509376  0.17423906    -0.81100
Cd150      Cd  0.82146987  0.33684714  0.18667261     1.59700
Cd151      Cd  0.78812229  0.29155123  0.18859529     1.59600
O152        O  0.80595002  0.33790730  0.21787283    -0.81100
O153        O  0.81077656  0.30947531  0.16967289    -1.91600
Cd154      Cd  0.83766334  0.29017522  0.16247885     1.59900
O155        O  0.78147021  0.30889763  0.21912597    -0.81000
O156        O  0.84107363  0.28569528  0.12757175    -0.79700
C157        C  0.75138617  0.29652454  0.15186323     0.82900
C158        C  0.80325389  0.37043499  0.15131514     0.82500
O159        O  0.81408664  0.30805554  0.11418587    -0.78600
C160        C  0.87177463  0.32289775  0.18582529     0.83300
O161        O  0.76516912  0.30840302  0.14013571    -0.78700
C162        C  0.79059567  0.32651197  0.22803599     0.83500
C163        C  0.81991589  0.24962043  0.19114753     0.83800
O164        O  0.80138407  0.25939719  0.19653052    -0.81100
C165        C  0.40603508  0.21118868  0.06024940     0.80100
N166        N  0.39924997  0.21001422  0.03819548    -0.78200
C167        C  0.37717920  0.20663473  0.03269904     0.82500
N168        N  0.36186092  0.20392542  0.04959026    -0.78200
C169        C  0.36811688  0.20507168  0.07173152     0.82600
N170        N  0.39035343  0.20883247  0.07720813    -0.79900
C171        C  0.57013901  0.25210088  0.05829078     0.80100
N172        N  0.57589967  0.25470493  0.03606882    -0.78200
C173        C  0.59610839  0.26393116  0.03008487     0.82500
N174        N  0.61064658  0.27046664  0.04660769    -0.78200
C175        C  0.60546051  0.26803643  0.06891439     0.82600
N176        N  0.58501022  0.25876917  0.07489055    -0.79900
C177        C  0.26056053  0.92356187  0.91233218     0.80100
N178        N  0.26295207  0.94505080  0.90446602    -0.78200
C179        C  0.26235117  0.94947704  0.88194181     0.82500
N180        N  0.25923413  0.93215857  0.86718496    -0.78200
C181        C  0.25676888  0.91056599  0.87460810     0.82600
N182        N  0.25750759  0.90618206  0.89730216    -0.79900
C183        C  0.22781689  0.92159517  0.07802654     0.80100
N184        N  0.22119356  0.90331955  0.09050361    -0.78200
C185        C  0.21079785  0.90645419  0.11085154     0.82500
N186        N  0.20696863  0.92769845  0.11852979    -0.78200
C187        C  0.21365277  0.94599867  0.10643080     0.82600
N188        N  0.22410179  0.94282901  0.08615281    -0.79900
O189        O  0.34781692  0.13784062  0.79358499    -0.78600
C190        C  0.29094032  0.10932179  0.82998251     0.82400
O191        O  0.27998970  0.17204627  0.75926698    -0.79800
O192        O  0.25754629  0.17495134  0.84080061    -0.81200
O193        O  0.33713972  0.18729627  0.85467794    -0.81000
O194        O  0.36120081  0.17056698  0.80673968    -0.79700
Zn195      Zn  0.31360346  0.14092270  0.79571096     1.55700
O196        O  0.30594546  0.17144587  0.86878196    -0.81100
Cd197      Cd  0.33246213  0.18503608  0.81999973     1.59700
Cd198      Cd  0.28409572  0.18769943  0.79142704     1.59600
O199        O  0.33026908  0.21735743  0.80876720    -0.81100
O200        O  0.30444718  0.16828584  0.81129545    -1.91600
Cd201      Cd  0.28878141  0.16013252  0.84013997     1.59900
O202        O  0.29896301  0.22035450  0.78770290    -0.81000
O203        O  0.28481324  0.12545797  0.84293694    -0.79700
C204        C  0.28882305  0.15381822  0.75164365     0.82900
C205        C  0.36435218  0.15119226  0.79787842     0.82500
O206        O  0.30154298  0.11307339  0.81150068    -0.78600
C207        C  0.32489567  0.18158452  0.87153254     0.83300
O208        O  0.30145606  0.14155811  0.76401566    -0.78700
C209        C  0.31691112  0.22894633  0.79659927     0.83500
C210        C  0.24535577  0.18636230  0.82723903     0.83800
O211        O  0.25215584  0.19178845  0.80732242    -0.81100
C212        C  0.20794980  0.05424817  0.40859292     0.80100
N213        N  0.20450998  0.03273339  0.40102893    -0.78200
C214        C  0.20280190  0.02802684  0.37857610     0.82500
N215        N  0.20471845  0.04516410  0.36344982    -0.78200
C216        C  0.20815463  0.06683124  0.37052066     0.82600
N217        N  0.20971532  0.07144431  0.39321460    -0.79900
C218        C  0.24442483  0.05213734  0.57499389     0.80100
N219        N  0.24962154  0.06948769  0.58947569    -0.78200
C220        C  0.25806881  0.06494190  0.61050252     0.82500
N221        N  0.26143461  0.04313816  0.61680866    -0.78200
C222        C  0.25606204  0.02574266  0.60267902     0.82600
N223        N  0.24750653  0.03041111  0.58184517    -0.79900
O224        O  0.17984807  0.11964820  0.14390296    -0.78600
C225        C  0.13963890  0.16936546  0.11058322     0.82400
O226        O  0.21323082  0.18942943  0.17022880    -0.79800
O227        O  0.13466614  0.21302618  0.17063956    -0.81200
O228        O  0.11775618  0.13555455  0.19579464    -0.81000
O229        O  0.16242893  0.10726900  0.17493189    -0.79700
Zn230      Zn  0.17625199  0.15322127  0.14333006     1.55700
O231        O  0.10462055  0.16513681  0.17672869    -0.81100
Cd232      Cd  0.15258236  0.13737445  0.18986487     1.59700
Cd233      Cd  0.18208805  0.18540533  0.18777420     1.59600
O234        O  0.16958975  0.13933974  0.22041041    -0.81100
O235        O  0.16127298  0.16393665  0.17051083    -1.91600
Cd236      Cd  0.13280971  0.17945098  0.16120230     1.59900
O237        O  0.18933579  0.17184635  0.22004322    -0.81000
O238        O  0.12734028  0.17746940  0.12637545    -0.79700
C239        C  0.22022410  0.17985917  0.15203756     0.82900
C240        C  0.17362259  0.10356117  0.15682361     0.82500
O241        O  0.15868136  0.16034534  0.11491958    -0.78600
C242        C  0.10135449  0.14792935  0.18935918     0.83300
O243        O  0.20751399  0.16631935  0.14088191    -0.78700
C244        C  0.18320890  0.15342033  0.22970251     0.83500
C245        C  0.14809233  0.22510113  0.18269498     0.83800
O246        O  0.16630798  0.21709946  0.19121232    -0.81100
C247        C  0.91899004  0.90250682  0.24707278     0.80100
N248        N  0.94091440  0.89767713  0.25242465    -0.78200
C249        C  0.94671628  0.87674096  0.25952682     0.82500
N250        N  0.93053406  0.86053766  0.26065624    -0.78200
C251        C  0.90867537  0.86462323  0.25507272     0.82600
N252        N  0.90268097  0.88591952  0.24855123    -0.79900
C253        C  0.91397265  0.07016519  0.22389914     0.80100
N254        N  0.89642844  0.08512123  0.22486248    -0.78200
C255        C  0.90086908  0.10787544  0.22511403     0.82500
N256        N  0.92270546  0.11538552  0.22414683    -0.78200
C257        C  0.94018407  0.10068960  0.22300641     0.82600
N258        N  0.93561593  0.07820552  0.22292539    -0.79900
O259        O  0.12208198  0.83718376  0.29120547    -0.78600
C260        C  0.17752596  0.86630949  0.32847824     0.82400
O261        O  0.18860395  0.80212423  0.25782495    -0.79800
O262        O  0.21212175  0.80023185  0.33872118    -0.81200
O263        O  0.13310323  0.78663343  0.35300796    -0.81000
O264        O  0.10711422  0.80692800  0.30766032    -0.79700
Zn265      Zn  0.15581219  0.83393683  0.29423963     1.55700
O266        O  0.16340560  0.80464812  0.36678118    -0.81100
Cd267      Cd  0.13603168  0.79042982  0.31832887     1.59700
Cd268      Cd  0.18448739  0.78668230  0.28993589     1.59600
O269        O  0.13557193  0.75926818  0.30327641    -0.81100
O270        O  0.16455658  0.80664384  0.30980366    -1.91600
Cd271      Cd  0.18083746  0.81546044  0.33823231     1.59900
O272        O  0.16845422  0.75469757  0.28501337    -0.81000
O273        O  0.18442990  0.85039941  0.34124004    -0.79700
C274        C  0.17978064  0.82034373  0.25033002     0.82900
C275        C  0.10487151  0.82551566  0.29708931     0.82500
O276        O  0.16698995  0.86208564  0.31006392    -0.78600
C277        C  0.14500077  0.79357992  0.36971240     0.83300
O278        O  0.16770657  0.83297670  0.26287723    -0.78700
C279        C  0.14884419  0.74746327  0.29110410     0.83500
C280        C  0.22367066  0.78792948  0.32526525     0.83800
O281        O  0.21630711  0.78187980  0.30570102    -0.81100
C282        C  0.41677217  0.40691050  0.75996735     0.80100
N283        N  0.39974676  0.39185555  0.76438149    -0.78200
C284        C  0.40480107  0.37058326  0.77148855     0.82500
N285        N  0.42683038  0.36452098  0.77421002    -0.78200
C286        C  0.44389684  0.37941838  0.76974026     0.82600
N287        N  0.43867807  0.40052731  0.76261858    -0.79900
C288        C  0.41586493  0.57277168  0.72736463     0.80100
N289        N  0.43748491  0.58026796  0.72418516    -0.78200
C290        C  0.44228484  0.60266503  0.72241166     0.82500
N291        N  0.42509352  0.61769335  0.72378595    -0.78200
C292        C  0.40337238  0.61053911  0.72677017     0.82600
N293        N  0.39868241  0.58800292  0.72850741    -0.79900
C294        C  0.73240630  0.42149596  0.40428021     0.80100
N295        N  0.73668469  0.44341429  0.39871525    -0.78200
C296        C  0.74636508  0.44899115  0.37861083     0.82500
N297        N  0.75176433  0.43224526  0.36383796    -0.78200
C298        C  0.74735211  0.41022644  0.36889172     0.82600
N299        N  0.73775231  0.40475928  0.38925006    -0.79900
C300        C  0.70039795  0.42329743  0.57047474     0.80100
N301        N  0.69730774  0.44517109  0.57709932    -0.78200
C302        C  0.69669123  0.45087017  0.59935069     0.82500
N303        N  0.69934395  0.43451435  0.61504939    -0.78200
C304        C  0.70263057  0.41261457  0.60909257     0.82600
N305        N  0.70307574  0.40686883  0.58659696    -0.79900
O306        O  0.63157448  0.69287871  0.63282745    -0.78600
C307        C  0.60291853  0.65172433  0.68905948     0.82400
O308        O  0.66695040  0.72161971  0.70019555    -0.79800
O309        O  0.67166658  0.64084354  0.72036934    -0.81200
O310        O  0.67677029  0.62741209  0.63945577    -0.81000
O311        O  0.66235328  0.67758709  0.61759991    -0.79700
Zn312      Zn  0.63408740  0.68651930  0.66659766     1.55700
O313        O  0.66202665  0.61414299  0.67153116    -0.81100
Cd314      Cd  0.67717595  0.66210278  0.64527100     1.59700
Cd315      Cd  0.68234686  0.69040135  0.69348881     1.59600
O316        O  0.71043779  0.67221292  0.64708894    -0.81100
O317        O  0.66168195  0.67075090  0.67404219    -1.91600
Cd318      Cd  0.65377318  0.64234880  0.69038812     1.59900
O319        O  0.71383427  0.69481629  0.67737303    -0.81000
O320        O  0.61924346  0.63984318  0.69645300    -0.79700
C321        C  0.64683630  0.72790888  0.69545583     0.82900
C322        C  0.64401111  0.68865546  0.61563350     0.82500
O323        O  0.60640835  0.66925663  0.67699097    -0.78600
C324        C  0.67052204  0.61091559  0.65191682     0.83300
O325        O  0.63348911  0.71586052  0.68339900    -0.78700
C326        C  0.72221404  0.68521879  0.65982622     0.83500
C327        C  0.68431168  0.65443989  0.73159188     0.83800
O328        O  0.68906591  0.67434473  0.72454152    -0.81100
C329        C  0.67327693  0.58732298  0.64373050    -0.01400
C330        C  0.66659908  0.56926139  0.65762234    -0.09500
C331        C  0.66970923  0.54694366  0.65077858    -0.18300
C332        C  0.67973954  0.54176431  0.62963032     0.04100
C333        C  0.68578248  0.56003836  0.61515432     0.18300
C334        C  0.68265880  0.58255099  0.62233621    -0.19700
C335        C  0.69494405  0.55569323  0.59365180    -0.21000
C336        C  0.69823598  0.53356415  0.58622430    -0.19500
C337        C  0.69291680  0.51521717  0.60030007     0.19700
C338        C  0.68389382  0.51911114  0.62234768     0.01800
C339        C  0.67977438  0.50016513  0.63634805    -0.14300
C340        C  0.68408457  0.47833163  0.62871239    -0.12000
C341        C  0.69242875  0.47441118  0.60680872     0.01300
C342        C  0.69677383  0.49297578  0.59260802    -0.24200
H343        H  0.65899683  0.57232621  0.67407083     0.09300
H344        H  0.66390553  0.53415486  0.66244182     0.12900
H345        H  0.68764651  0.59634528  0.61127577     0.11600
H346        H  0.69950585  0.56950973  0.58245097     0.12800
H347        H  0.70523663  0.53079064  0.56944556     0.11800
H348        H  0.67353839  0.50158862  0.65346768     0.08900
H349        H  0.68062734  0.46436156  0.64008978     0.12200
H350        H  0.70354831  0.49015333  0.57573481     0.14100
C351        C  0.70096865  0.41820604  0.54571914    -0.01400
C352        C  0.71254591  0.39956771  0.53679337    -0.09500
C353        C  0.71540528  0.39706758  0.51321041    -0.18300
C354        C  0.70679113  0.41330266  0.49784499     0.04100
C355        C  0.69405776  0.43143831  0.50709888     0.18300
C356        C  0.69112304  0.43353622  0.53060137    -0.19700
C357        C  0.68506743  0.44807242  0.49297578    -0.21000
C358        C  0.68950858  0.44789736  0.46988237    -0.19500
C359        C  0.70285295  0.43095128  0.46028818     0.19700
C360        C  0.71109388  0.41292999  0.47385105     0.01800
C361        C  0.72396499  0.39597821  0.46283704    -0.14300
C362        C  0.72973577  0.39783994  0.43975697    -0.12000
C363        C  0.72290023  0.41660444  0.42707542     0.01300
C364        C  0.70878295  0.43258309  0.43731495    -0.24200
H365        H  0.72020055  0.38738316  0.54806868     0.09300
H366        H  0.72502880  0.38271063  0.50752774     0.12900
H367        H  0.68171726  0.44779720  0.53720158     0.11600
H368        H  0.67516536  0.46179603  0.49995978     0.12800
H369        H  0.68296077  0.46149538  0.45954149     0.11800
H370        H  0.73032579  0.38148455  0.47178844     0.08900
H371        H  0.74056078  0.38519623  0.43216072     0.12200
H372        H  0.70307784  0.44695769  0.42751277     0.14100
C373        C  0.46589561  0.61057330  0.71827988    -0.01400
C374        C  0.47060384  0.63359090  0.71486388    -0.09500
C375        C  0.49263349  0.64115058  0.71038389    -0.18300
C376        C  0.51089558  0.62584883  0.70917358     0.04100
C377        C  0.50612878  0.60254809  0.71294406     0.18300
C378        C  0.48385128  0.59516470  0.71735934    -0.19700
C379        C  0.52361324  0.58670661  0.71223954    -0.21000
C380        C  0.54581292  0.59349526  0.70791136    -0.19500
C381        C  0.55106438  0.61627038  0.70394656     0.19700
C382        C  0.53367336  0.63278770  0.70435077     0.01800
C383        C  0.53983745  0.65548044  0.69968084    -0.14300
C384        C  0.56223635  0.66143163  0.69472327    -0.12000
C385        C  0.57931722  0.64514453  0.69457585     0.01300
C386        C  0.57363184  0.62259534  0.69936827    -0.24200
H387        H  0.45716174  0.64593679  0.71550468     0.09300
H388        H  0.49476546  0.65908314  0.70799561     0.12900
H389        H  0.48053756  0.57730816  0.72003589     0.11600
H390        H  0.52010330  0.56891762  0.71510547     0.12800
H391        H  0.55895592  0.58080680  0.70752988     0.11800
H392        H  0.52775920  0.66901303  0.69948705     0.08900
H393        H  0.56623780  0.67898633  0.69115451     0.12200
H394        H  0.58673012  0.60984685  0.69906678     0.14100
C395        C  0.41208168  0.43019616  0.75236946    -0.01400
C396        C  0.39495369  0.44316473  0.76229361    -0.09500
C397        C  0.39295380  0.46622810  0.75714121    -0.18300
C398        C  0.40804279  0.47689641  0.74170507     0.04100
C399        C  0.42455689  0.46316192  0.73088666     0.18300
C400        C  0.42641539  0.44021011  0.73632276    -0.19700
C401        C  0.43972961  0.47250662  0.71521804    -0.21000
C402        C  0.43966249  0.49550258  0.71076607    -0.19500
C403        C  0.42440504  0.50972473  0.72185659     0.19700
C404        C  0.40795794  0.50069486  0.73707470     0.01800
C405        C  0.39273344  0.51604439  0.74738949    -0.14300
C406        C  0.39455467  0.53940888  0.74351317    -0.12000
C407        C  0.41162556  0.54812903  0.72941287     0.01300
C408        C  0.42607165  0.53308623  0.71825691    -0.24200
H409        H  0.38372274  0.43569951  0.77479906     0.09300
H410        H  0.37982005  0.47537686  0.76585852     0.12900
H411        H  0.43954158  0.43013912  0.72841312     0.11600
H412        H  0.45214889  0.46203060  0.70674960     0.12800
H413        H  0.45203064  0.50230181  0.69894962     0.11800
H414        H  0.37958687  0.51053545  0.75887267     0.08900
H415        H  0.38315030  0.55073865  0.75227004     0.12200
H416        H  0.43910132  0.53967084  0.70701784     0.14100
C417        C  0.08188773  0.83386368  0.29153938    -0.01400
C418        C  0.07922263  0.85370597  0.27886410    -0.09500
C419        C  0.05769039  0.86185389  0.27367051    -0.18300
C420        C  0.03792057  0.85036150  0.28103299     0.04100
C421        C  0.04071085  0.83017055  0.29379788     0.18300
C422        C  0.06247618  0.82218297  0.29891227    -0.19700
C423        C  0.02175922  0.81797459  0.30134962    -0.21000
C424        C  0.00002876  0.82521386  0.29627215    -0.19500
C425        C  0.99669577  0.84491696  0.28364803     0.19700
C426        C  0.01551373  0.85799087  0.27604330     0.01800
C427        C  0.01099188  0.87802828  0.26374646    -0.14300
C428        C  0.98873574  0.88442548  0.25878761    -0.12000
C429        C  0.97033313  0.87105639  0.26578420     0.01300
C430        C  0.97453279  0.85146433  0.27843833    -0.24200
H431        H  0.09389112  0.86306133  0.27284641     0.09300
H432        H  0.05710673  0.87712216  0.26377805     0.12900
H433        H  0.06426356  0.80680371  0.30870427     0.11600
H434        H  0.02375194  0.80261387  0.31111807     0.12800
H435        H  0.98570402  0.81526081  0.30220017     0.11800
H436        H  0.02425853  0.88906202  0.25765056     0.08900
H437        H  0.98596880  0.89966380  0.24904756     0.12200
H438        H  0.96044334  0.84110530  0.28425405     0.14100
C439        C  0.91371848  0.92580910  0.23955086    -0.01400
C440        C  0.89433124  0.93721091  0.24695150    -0.09500
C441        C  0.89178744  0.96046970  0.24274111    -0.18300
C442        C  0.90863613  0.97295226  0.23085370     0.04100
C443        C  0.92750555  0.96078125  0.22225173     0.18300
C444        C  0.92980877  0.93762303  0.22663299    -0.19700
C445        C  0.94454790  0.97189474  0.21001561    -0.21000
C446        C  0.94388853  0.99510565  0.20694035    -0.19500
C447        C  0.92619299  0.00782852  0.21605772     0.19700
C448        C  0.90800648  0.99705121  0.22775279     0.01800
C449        C  0.89055870  0.01104971  0.23637060    -0.14300
C450        C  0.89177721  0.03475628  0.23432493    -0.12000
C451        C  0.91037954  0.04518775  0.22369482     0.01300
C452        C  0.92712110  0.03143703  0.21410102    -0.24200
H453        H  0.88165052  0.92839400  0.25694746     0.09300
H454        H  0.87680546  0.96836698  0.24946539     0.12900
H455        H  0.94470557  0.92883283  0.22055483     0.11600
H456        H  0.95882539  0.96263483  0.20323827     0.12800
H457        H  0.95766998  0.00325337  0.19783789     0.11800
H458        H  0.87608698  0.00416782  0.24523340     0.08900
H459        H  0.87857878  0.04495939  0.24184239     0.12200
H460        H  0.94143300  0.03921905  0.20548686     0.14100
C461        C  0.96391023  0.10900393  0.22056971    -0.01400
C462        C  0.96837773  0.13143379  0.21423724    -0.09500
C463        C  0.99054073  0.13892847  0.21018477    -0.18300
C464        C  0.00916729  0.12417819  0.21243371     0.04100
C465        C  0.00466511  0.10172823  0.21986199     0.18300
C466        C  0.98225212  0.09435166  0.22368046    -0.19700
C467        C  0.02253952  0.08666114  0.22314242    -0.21000
C468        C  0.04481329  0.09325744  0.21879554    -0.19500
C469        C  0.04977637  0.11498284  0.21069723     0.19700
C470        C  0.03202601  0.13077287  0.20737631     0.01800
C471        C  0.03789413  0.15226998  0.19859429    -0.14300
C472        C  0.06030636  0.15771847  0.19309065    -0.12000
C473        C  0.07778430  0.14213826  0.19633904     0.01300
C474        C  0.07236910  0.12084863  0.20544880    -0.24200
H475        H  0.95461872  0.14319923  0.21185719     0.09300
H476        H  0.99249719  0.15636179  0.20522420     0.12900
H477        H  0.97909929  0.07703669  0.22890887     0.11600
H478        H  0.01925755  0.06957608  0.22898840     0.12800
H479        H  0.05822385  0.08112658  0.22140010     0.11800
H480        H  0.02550304  0.16513641  0.19534143     0.08900
H481        H  0.06392634  0.17429097  0.18611671     0.12200
H482        H  0.08567131  0.10855493  0.20789333     0.14100
C483        C  0.19869946  0.00447344  0.37070512    -0.01400
C484        C  0.19016942  0.00022477  0.34890164    -0.09500
C485        C  0.18609421  0.97812094  0.34139299    -0.18300
C486        C  0.19070658  0.95934006  0.35544414     0.04100
C487        C  0.19950039  0.96372786  0.37750850     0.18300
C488        C  0.20320191  0.98607725  0.38495613    -0.19700
C489        C  0.20471517  0.94578121  0.39198594    -0.21000
C490        C  0.20157131  0.92349456  0.38497968    -0.19500
C491        C  0.19295468  0.91856226  0.36337624     0.19700
C492        C  0.18716435  0.93639858  0.34835739     0.01800
C493        C  0.17811680  0.93045316  0.32690821    -0.14300
C494        C  0.17523245  0.90783046  0.32058458    -0.12000
C495        C  0.18127326  0.89027181  0.33528422     0.01300
C496        C  0.19008111  0.89583603  0.35672774    -0.24200
H497        H  0.18640526  0.01409325  0.33757649     0.09300
H498        H  0.17950919  0.97633379  0.32443574     0.12900
H499        H  0.20993556  0.98911807  0.40182422     0.11600
H500        H  0.21143718  0.94899973  0.40881987     0.12800
H501        H  0.20592861  0.91000543  0.39655888     0.11800
H502        H  0.17299275  0.94285823  0.31464066     0.08900
H503        H  0.16818000  0.90411418  0.30399910     0.12200
H504        H  0.19455220  0.88245716  0.36839878     0.14100
C505        C  0.19237874  0.14727343  0.25211690    -0.01400
C506        C  0.18225258  0.15518592  0.27205334    -0.09500
C507        C  0.18724566  0.14526898  0.29305096    -0.18300
C508        C  0.20235339  0.12682946  0.29460222     0.04100
C509        C  0.21361441  0.11994830  0.27437201     0.18300
C510        C  0.20854366  0.13017320  0.25349314    -0.19700
C511        C  0.22894899  0.10204521  0.27483102    -0.21000
C512        C  0.23230024  0.08979714  0.29460086    -0.19500
C513        C  0.22039236  0.09512104  0.31442071     0.19700
C514        C  0.20581037  0.11415523  0.31504261     0.01800
C515        C  0.19453275  0.11881600  0.33578082    -0.14300
C516        C  0.19649906  0.10431359  0.35450216    -0.12000
C517        C  0.20969146  0.08478823  0.35309469     0.01300
C518        C  0.22213236  0.08075917  0.33326571    -0.24200
H519        H  0.16956098  0.16827937  0.27121996     0.09300
H520        H  0.17833598  0.15178503  0.30764480     0.12900
H521        H  0.21624958  0.12391515  0.23798592     0.11600
H522        H  0.23781577  0.09694027  0.25955427     0.12800
H523        H  0.24369327  0.07551130  0.29415564     0.11800
H524        H  0.18345961  0.13312556  0.33777972     0.08900
H525        H  0.18668650  0.10768313  0.36965500     0.12200
H526        H  0.23250296  0.06571505  0.33216796     0.14100
C527        C  0.21013565  0.05811513  0.43348293    -0.01400
C528        C  0.22275359  0.07622982  0.44250632    -0.09500
C529        C  0.22701015  0.07769493  0.46595979    -0.18300
C530        C  0.21870854  0.06097246  0.48113194     0.04100
C531        C  0.20502321  0.04331390  0.47186737     0.18300
C532        C  0.20083394  0.04215576  0.44846906    -0.19700
C533        C  0.19613666  0.02634697  0.48585208    -0.21000
C534        C  0.20134534  0.02586768  0.50878950    -0.19500
C535        C  0.21546437  0.04242169  0.51838410     0.19700
C536        C  0.22394737  0.06058085  0.50494251     0.01800
C537        C  0.23773790  0.07705378  0.51589922    -0.14300
C538        C  0.24357604  0.07495387  0.53891693    -0.12000
C539        C  0.23603779  0.05634399  0.55163307     0.01300
C540        C  0.22161538  0.04045343  0.54129353    -0.24200
H541        H  0.23009155  0.08883022  0.43133499     0.09300
H542        H  0.23730406  0.09175041  0.47166340     0.12900
H543        H  0.19071667  0.02824782  0.44179904     0.11600
H544        H  0.18552353  0.01297775  0.47887870     0.12800
H545        H  0.19463426  0.01215150  0.51902148     0.11800
H546        H  0.24457068  0.09148767  0.50700688     0.08900
H547        H  0.25475491  0.08746329  0.54653843     0.12200
H548        H  0.21545354  0.02614806  0.55107110     0.14100
C549        C  0.32321637  0.25304496  0.79350839    -0.01400
C550        C  0.32042577  0.26431932  0.77285373    -0.09500
C551        C  0.33060693  0.28562234  0.76935572    -0.18300
C552        C  0.34406403  0.29607186  0.78647304     0.04100
C553        C  0.34569593  0.28490364  0.80772242     0.18300
C554        C  0.33503559  0.26396185  0.81109196    -0.19700
C555        C  0.35902933  0.29398854  0.82519574    -0.21000
C556        C  0.37211065  0.31323112  0.82158608    -0.19500
C557        C  0.37171094  0.32418409  0.80060970     0.19700
C558        C  0.35694304  0.31645689  0.78304762     0.01800
C559        C  0.35642560  0.32908312  0.76266626    -0.14300
C560        C  0.37108124  0.34759798  0.75939531    -0.12000
C561        C  0.38677572  0.35380837  0.77615209     0.01300
C562        C  0.38662714  0.34239987  0.79687495    -0.24200
H563        H  0.31139977  0.25617058  0.75902260     0.09300
H564        H  0.32853178  0.29302299  0.75279591     0.12900
H565        H  0.33701309  0.25545591  0.82726022     0.11600
H566        H  0.36012390  0.28558733  0.84148474     0.12800
H567        H  0.38300707  0.31930216  0.83514875     0.11800
H568        H  0.34516325  0.32480319  0.74887174     0.08900
H569        H  0.37090371  0.35640760  0.74330257     0.12200
H570        H  0.39858513  0.34744328  0.80997357     0.14100
C571        C  0.28484457  0.14603164  0.72793834    -0.01400
C572        C  0.26459411  0.15018684  0.71627296    -0.09500
C573        C  0.26025462  0.13980987  0.69515717    -0.18300
C574        C  0.27616958  0.12494350  0.68510827     0.04100
C575        C  0.29713324  0.12195108  0.69656686     0.18300
C576        C  0.30122690  0.13247122  0.71752160    -0.19700
C577        C  0.31371059  0.10774114  0.68756184    -0.21000
C578        C  0.30953695  0.09536341  0.66797047    -0.19500
C579        C  0.28872798  0.09697274  0.65679742     0.19700
C580        C  0.27191711  0.11225175  0.66468778     0.01800
C581        C  0.25141102  0.11338202  0.65221089    -0.14300
C582        C  0.24740118  0.09903105  0.63354789    -0.12000
C583        C  0.26359112  0.08312680  0.62692131     0.01300
C584        C  0.28437178  0.08262010  0.63827501    -0.24200
H585        H  0.25170735  0.16070294  0.72390086     0.09300
H586        H  0.24409790  0.14321383  0.68738663     0.12900
H587        H  0.31714261  0.12946913  0.72618201     0.11600
H588        H  0.32980874  0.10563989  0.69613361     0.12800
H589        H  0.32249159  0.08397220  0.66184381     0.11800
H590        H  0.23797511  0.12474262  0.65686863     0.08900
H591        H  0.23115210  0.09955778  0.62501929     0.12200
H592        H  0.29696221  0.07036077  0.63310213     0.14100
C593        C  0.18254670  0.82745472  0.22642639    -0.01400
C594        C  0.16491446  0.83954371  0.21633117    -0.09500
C595        C  0.16742453  0.84914926  0.19498348    -0.18300
C596        C  0.18802069  0.84739974  0.18295136     0.04100
C597        C  0.20563404  0.83429043  0.19272293     0.18300
C598        C  0.20263867  0.82413150  0.21419941    -0.19700
C599        C  0.22644183  0.83233869  0.18146493    -0.21000
C600        C  0.23058123  0.84414392  0.16142455    -0.19500
C601        C  0.21396364  0.85807636  0.15204991     0.19700
C602        C  0.19215362  0.85926402  0.16226351     0.01800
C603        C  0.17582827  0.87335288  0.15203871    -0.14300
C604        C  0.18166810  0.88744443  0.13405723    -0.12000
C605        C  0.20360405  0.88741698  0.12515753     0.01300
C606        C  0.21940537  0.87193162  0.13337862    -0.24200
H607        H  0.14906141  0.84200765  0.22526797     0.09300
H608        H  0.15310537  0.85846282  0.18878972     0.12900
H609        H  0.21635525  0.81479820  0.22191264     0.11600
H610        H  0.23990259  0.82225628  0.18863283     0.12800
H611        H  0.24716547  0.84295730  0.15361745     0.11800
H612        H  0.15867329  0.87468549  0.15811100     0.08900
H613        H  0.16923664  0.89924688  0.12771299     0.12200
H614        H  0.23647212  0.87205113  0.12653241     0.14100
C615        C  0.20877035  0.96903018  0.11508173    -0.01400
C616        C  0.19594172  0.97181519  0.13492611    -0.09500
C617        C  0.19036199  0.99329362  0.14285530    -0.18300
C618        C  0.19744408  0.01292271  0.13112480     0.04100
C619        C  0.21086368  0.01007369  0.11126457     0.18300
C620        C  0.21639259  0.98831769  0.10348458    -0.19700
C621        C  0.21846618  0.02894643  0.09909330    -0.21000
C622        C  0.21270193  0.05063382  0.10597854    -0.19500
C623        C  0.19921063  0.05398143  0.12521585     0.19700
C624        C  0.19150341  0.03523087  0.13821355     0.01800
C625        C  0.17800926  0.03966309  0.15757779    -0.14300
C626        C  0.17227098  0.06175262  0.16357704    -0.12000
C627        C  0.17973205  0.08013282  0.15055272     0.01300
C628        C  0.19329146  0.07606172  0.13143272    -0.24200
H629        H  0.18985896  0.95728386  0.14435765     0.09300
H630        H  0.18033273  0.99389492  0.15809812     0.12900
H631        H  0.22646200  0.98644669  0.08821279     0.11600
H632        H  0.22878285  0.02691687  0.08401230     0.12800
H633        H  0.21870951  0.06489490  0.09607537     0.11800
H634        H  0.17154029  0.02648450  0.16840748     0.08900
H635        H  0.16184877  0.06440263  0.17847576     0.12200
H636        H  0.19930050  0.09013551  0.12125855     0.14100
C637        C  0.26562614  0.97281171  0.87346252    -0.01400
C638        C  0.27214262  0.97654138  0.85090687    -0.09500
C639        C  0.27607031  0.99840145  0.84289066    -0.18300
C640        C  0.27338728  0.01742592  0.85721329     0.04100
C641        C  0.26602419  0.01359459  0.87987899     0.18300
C642        C  0.26248334  0.99146656  0.88782489    -0.19700
C643        C  0.26224396  0.03186855  0.89450296    -0.21000
C644        C  0.26574160  0.05393619  0.88715240    -0.19500
C645        C  0.27352287  0.05826464  0.86513425     0.19700
C646        C  0.27766290  0.04008126  0.84988044     0.01800
C647        C  0.28622190  0.04538534  0.82809149    -0.14300
C648        C  0.29034364  0.06776227  0.82172199    -0.12000
C649        C  0.28596886  0.08565331  0.83670633     0.01300
C650        C  0.27745703  0.08072152  0.85838509    -0.24200
H651        H  0.27458835  0.96244376  0.83940421     0.09300
H652        H  0.28105410  0.99981541  0.82535738     0.12900
H653        H  0.25710574  0.98879018  0.90521974     0.11600
H654        H  0.25648149  0.02907861  0.91174619     0.12800
H655        H  0.26259333  0.06771899  0.89887878     0.11800
H656        H  0.29024425  0.03262862  0.81566656     0.08900
H657        H  0.29705963  0.07103143  0.80492663     0.12200
H658        H  0.27422924  0.09438064  0.87024614     0.14100
C659        C  0.26076349  0.91982535  0.93717184    -0.01400
C660        C  0.27170648  0.93565807  0.95121592    -0.09500
C661        C  0.26962816  0.93460018  0.97472167    -0.18300
C662        C  0.25607232  0.91777045  0.98511990     0.04100
C663        C  0.24604908  0.90091143  0.97093390     0.18300
C664        C  0.24865795  0.90193871  0.94717341    -0.19700
C665        C  0.23271268  0.88370875  0.98049494    -0.21000
C666        C  0.22829036  0.88343996  0.00370661    -0.19500
C667        C  0.23697030  0.90044546  0.01792932     0.19700
C668        C  0.25133789  0.91764383  0.00891056     0.01800
C669        C  0.25941664  0.93460994  0.02392271    -0.14300
C670        C  0.25237299  0.93526322  0.04649608    -0.12000
C671        C  0.23756156  0.91878615  0.05509083     0.01300
C672        C  0.23054492  0.90095337  0.04093313    -0.24200
H673        H  0.28159972  0.94935781  0.94394667     0.09300
H674        H  0.27840829  0.94759433  0.98419096     0.12900
H675        H  0.24021797  0.88954011  0.93644479     0.11600
H676        H  0.22516670  0.87068523  0.96986410     0.12800
H677        H  0.21742900  0.87020547  0.01047405     0.11800
H678        H  0.27058000  0.94810819  0.01862375     0.08900
H679        H  0.25821329  0.94905128  0.05721426     0.12200
H680        H  0.21896825  0.88819244  0.04746069     0.14100
C681        C  0.24371432  0.18369819  0.14343166    -0.01400
C682        C  0.25680618  0.20265733  0.14961880    -0.09500
C683        C  0.27859568  0.20608572  0.14043318    -0.18300
C684        C  0.28804300  0.19047029  0.12481885     0.04100
C685        C  0.27479632  0.17105179  0.11913010     0.18300
C686        C  0.25308987  0.16791889  0.12835876    -0.19700
C687        C  0.28303818  0.15491163  0.10389302    -0.21000
C688        C  0.30387629  0.15796224  0.09343097    -0.19500
C689        C  0.31708542  0.17717659  0.09801277     0.19700
C690        C  0.30976647  0.19352579  0.11413884     0.01800
C691        C  0.32427705  0.21238727  0.11821220    -0.14300
C692        C  0.34438952  0.21549490  0.10569476    -0.12000
C693        C  0.35055874  0.19990401  0.08891311     0.01300
C694        C  0.33717543  0.18050908  0.08573195    -0.24200
H695        H  0.25003072  0.21509302  0.16125982     0.09300
H696        H  0.28756094  0.22120221  0.14562694     0.12900
H697        H  0.24335133  0.15299194  0.12362135     0.11600
H698        H  0.27306529  0.14000054  0.09965887     0.12800
H699        H  0.30949856  0.14539074  0.08128630     0.11800
H700        H  0.32014508  0.22530752  0.13044597     0.08900
H701        H  0.35444229  0.23070442  0.10825727     0.12200
H702        H  0.34194073  0.16839590  0.07273608     0.14100
C703        C  0.36993984  0.20478876  0.00859771    -0.01400
C704        C  0.38548525  0.20800528  0.99086911    -0.09500
C705        C  0.37881428  0.20549985  0.96821418    -0.18300
C706        C  0.35623974  0.19950825  0.96248866     0.04100
C707        C  0.34049772  0.19652272  0.98052594     0.18300
C708        C  0.34738760  0.19929431  0.00317655    -0.19700
C709        C  0.31798917  0.19042421  0.97592640    -0.21000
C710        C  0.31081843  0.18669546  0.95376936    -0.19500
C711        C  0.32592697  0.18914300  0.93562358     0.19700
C712        C  0.34877068  0.19595387  0.93962832     0.01800
C713        C  0.36312617  0.19865834  0.92057508    -0.14300
C714        C  0.35526541  0.19421802  0.89861951    -0.12000
C715        C  0.33292015  0.18686163  0.89483754     0.01300
C716        C  0.31830223  0.18459439  0.91347235    -0.24200
H717        H  0.40299681  0.21233514  0.99447382     0.09300
H718        H  0.39180269  0.20807088  0.95561469     0.12900
H719        H  0.33511711  0.19675617  0.01664903     0.11600
H720        H  0.30589228  0.18820792  0.98960720     0.12800
H721        H  0.29334681  0.18168579  0.95082198     0.11800
H722        H  0.38052922  0.20410915  0.92205305     0.08900
H723        H  0.36690131  0.19630293  0.88453996     0.12200
H724        H  0.30088657  0.17923196  0.91076809     0.14100
C725        C  0.43069406  0.21302666  0.06486716    -0.01400
C726        C  0.44547203  0.20059812  0.05116761    -0.09500
C727        C  0.46881810  0.20403318  0.05221477    -0.18300
C728        C  0.47837342  0.22058215  0.06677104     0.04100
C729        C  0.46351638  0.23234401  0.08165238     0.18300
C730        C  0.43983526  0.22832160  0.08075757    -0.19700
C731        C  0.47236121  0.24863881  0.09662985    -0.21000
C732        C  0.49542885  0.25414779  0.09649252    -0.19500
C733        C  0.51028307  0.24366274  0.08124007     0.19700
C734        C  0.50196741  0.22645371  0.06640095     0.01800
C735        C  0.51742386  0.21661355  0.05100962    -0.14300
C736        C  0.53971385  0.22438030  0.04949475    -0.12000
C737        C  0.54772762  0.24185494  0.06349506     0.01300
C738        C  0.53315386  0.25096056  0.07993334    -0.24200
H739        H  0.43882859  0.18838012  0.03907738     0.09300
H740        H  0.47881810  0.19379379  0.04094210     0.12900
H741        H  0.42849617  0.23798127  0.09145506     0.11600
H742        H  0.46127104  0.25757320  0.10818436     0.12800
H743        H  0.50157157  0.26719881  0.10795183     0.11800
H744        H  0.51268753  0.20342175  0.03925195     0.08900
H745        H  0.55068478  0.21702440  0.03674798     0.12200
H746        H  0.53917230  0.26467912  0.09066537     0.14100
C747        C  0.72804464  0.29315231  0.14276631    -0.01400
C748        C  0.71236844  0.27808729  0.15256633    -0.09500
C749        C  0.69071180  0.27492838  0.14299515    -0.18300
C750        C  0.68409946  0.28683438  0.12324745     0.04100
C751        C  0.69997762  0.30244759  0.11386650     0.18300
C752        C  0.72142634  0.30542491  0.12359585    -0.19700
C753        C  0.69465265  0.31484971  0.09446464    -0.21000
C754        C  0.67409552  0.31161006  0.08359016    -0.19500
C755        C  0.65834032  0.29587814  0.09182813     0.19700
C756        C  0.66272844  0.28350986  0.11199050     0.01800
C757        C  0.64580472  0.26797534  0.11936919    -0.14300
C758        C  0.62620792  0.26381310  0.10630246    -0.12000
C759        C  0.62291513  0.27513806  0.08571050     0.01300
C760        C  0.63862152  0.29182057  0.07926023    -0.24200
H761        H  0.71693419  0.26849554  0.16748849     0.09300
H762        H  0.67960210  0.26290891  0.15119807     0.12900
H763        H  0.73315880  0.31736876  0.11591775     0.11600
H764        H  0.70667490  0.32685949  0.08736729     0.12800
H765        H  0.67072193  0.32112323  0.06827031     0.11800
H766        H  0.64765545  0.25828894  0.13472356     0.08900
H767        H  0.61426005  0.25090984  0.11171561     0.12200
H768        H  0.63603635  0.30103986  0.06358649     0.14100
C769        C  0.82517199  0.22695365  0.20025028    -0.01400
C770        C  0.81878732  0.20735618  0.18840439    -0.09500
C771        C  0.82740823  0.18617306  0.19455732    -0.18300
C772        C  0.84311211  0.18405613  0.21261581     0.04100
C773        C  0.84864374  0.20397174  0.22518449     0.18300
C774        C  0.83960084  0.22504079  0.21898813    -0.19700
C775        C  0.86413914  0.20300996  0.24312716    -0.21000
C776        C  0.87549821  0.18309117  0.24790495    -0.19500
C777        C  0.87150338  0.16354005  0.23501984     0.19700
C778        C  0.85457895  0.16335145  0.21782825     0.01800
C779        C  0.85083029  0.14274056  0.20595279    -0.14300
C780        C  0.86468310  0.12387083  0.20962764    -0.12000
C781        C  0.88261174  0.12499014  0.22518245     0.01300
C782        C  0.88527484  0.14456712  0.23842388    -0.24200
H783        H  0.80780783  0.20856585  0.17373171     0.09300
H784        H  0.82222547  0.17191451  0.18429761     0.12900
H785        H  0.84475357  0.24024229  0.22803774     0.11600
H786        H  0.86820603  0.21802671  0.25295894     0.12800
H787        H  0.88810030  0.18320261  0.26129751     0.11800
H788        H  0.83785263  0.14097866  0.19316907     0.08900
H789        H  0.86228105  0.10889340  0.19924318     0.12200
H790        H  0.89898667  0.14543873  0.25067936     0.14100
C791        C  0.78361151  0.33444194  0.25085693    -0.01400
C792        C  0.76121830  0.33238000  0.25856082    -0.09500
C793        C  0.75460277  0.34229309  0.27920472    -0.18300
C794        C  0.77035918  0.35448555  0.29282659     0.04100
C795        C  0.79319298  0.35570929  0.28514455     0.18300
C796        C  0.79950714  0.34576116  0.26450541    -0.19700
C797        C  0.80961082  0.36744557  0.29772908    -0.21000
C798        C  0.80372484  0.37894118  0.31737505    -0.19500
C799        C  0.78131236  0.37881653  0.32506163     0.31300
C800        C  0.76433678  0.36610629  0.31335216     0.01800
C801        C  0.74208273  0.36621720  0.32243963    -0.14300
C802        C  0.73679170  0.37937896  0.34156688    -0.12000
C803        C  0.75343103  0.39281259  0.35203825     0.01300
C804        C  0.77568770  0.39206428  0.34399705    -0.24200
H805        H  0.74861688  0.32378404  0.24822607     0.09300
H806        H  0.73699664  0.34056647  0.28382991     0.12900
H807        H  0.81693206  0.34723852  0.25877130     0.11600
H808        H  0.82706552  0.36823033  0.29201609     0.12800
H809        H  0.81674808  0.38838428  0.32639373     0.11800
H810        H  0.72835603  0.35673761  0.31482144     0.08900
H811        H  0.71942142  0.37994871  0.34748867     0.12200
H812        H  0.78856302  0.40251381  0.35211656     0.14100
C813        C  0.09526993  0.18311074  0.97237544    -0.01400
C814        C  0.11729641  0.17554863  0.97669707    -0.09500
C815        C  0.12464217  0.17150251  0.99877507    -0.18300
C816        C  0.11022028  0.17517576  0.01755534     0.04100
C817        C  0.08770408  0.18239103  0.01314417     0.18300
C818        C  0.08034698  0.18594912  0.99069565    -0.19700
C819        C  0.07291984  0.18671747  0.03120752    -0.21000
C820        C  0.08024203  0.18478421  0.05357606    -0.19500
C821        C  0.10242492  0.17810355  0.05847302     0.19700
C822        C  0.11755961  0.17264137  0.04053199     0.01800
C823        C  0.13950287  0.16520073  0.04639242    -0.14300
C824        C  0.14638088  0.16405746  0.06900336    -0.12000
C825        C  0.13175423  0.17027626  0.08665553     0.01300
C826        C  0.10964803  0.17704088  0.08122504    -0.24200
H827        H  0.12915800  0.17301201  0.96290197     0.09300
H828        H  0.14193464  0.16609505  0.00054229     0.12900
H829        H  0.06328522  0.19186510  0.98759075     0.11600
H830        H  0.05571580  0.19214827  0.02801850     0.12800
H831        H  0.06851302  0.18873800  0.06715283     0.11800
H832        H  0.15182333  0.16012748  0.03392508     0.08900
H833        H  0.16342742  0.15844993  0.07262680     0.12200
H834        H  0.09800614  0.18152215  0.09471882     0.14100
C835        C  0.11921512  0.20412495  0.89613015    -0.01400
C836        C  0.11800399  0.19926885  0.87285787    -0.09500
C837        C  0.13778853  0.19921739  0.85946588    -0.18300
C838        C  0.15937837  0.20383536  0.86915634     0.04100
C839        C  0.16006010  0.20993998  0.89251083     0.18300
C840        C  0.14020100  0.21039788  0.90544436    -0.19700
C841        C  0.18069554  0.21448982  0.90331660    -0.21000
C842        C  0.20095269  0.21200003  0.89176986    -0.19500
C843        C  0.20106877  0.20522512  0.86903336     0.19700
C844        C  0.18039253  0.20170663  0.85704523     0.01800
C845        C  0.18189168  0.19549575  0.83380738    -0.14300
C846        C  0.20303164  0.19169367  0.82343928    -0.12000
C847        C  0.22310921  0.19381857  0.83599282     0.01300
C848        C  0.22192263  0.20118992  0.85853215    -0.24200
H849        H  0.10197256  0.19440414  0.86525065     0.09300
H850        H  0.13584129  0.19464792  0.84183815     0.12900
H851        H  0.14130289  0.21459878  0.92335516     0.11600
H852        H  0.18122331  0.21925744  0.92109486     0.12800
H853        H  0.21669018  0.21491833  0.90085964     0.11800
H854        H  0.16701277  0.19300303  0.82344116     0.08900
H855        H  0.20361130  0.18607774  0.80593655     0.12200
H856        H  0.23746258  0.20318210  0.86822247     0.14100
C857        C  0.87032459  0.26845563  0.97260897    -0.01400
C858        C  0.87986208  0.25538077  0.98989833    -0.09500
C859        C  0.87407870  0.25896405  0.01263488    -0.18300
C860        C  0.85861926  0.27603968  0.01893977     0.04100
C861        C  0.84923140  0.28947259  0.00134830     0.18300
C862        C  0.85499651  0.28549064  0.97852381    -0.19700
C863        C  0.83410026  0.30681427  0.00661083    -0.21000
C864        C  0.82786104  0.31100703  0.02897229    -0.19500
C865        C  0.83652775  0.29792231  0.04667171     0.19700
C866        C  0.85210493  0.28029177  0.04198207     0.01800
C867        C  0.86038732  0.26770802  0.06058041    -0.14300
C868        C  0.85345740  0.27242881  0.08279489    -0.12000
C869        C  0.83796774  0.28971463  0.08731469     0.01300
C870        C  0.82962329  0.30239832  0.06907410    -0.24200
H871        H  0.89166102  0.24203130  0.98582713     0.09300
H872        H  0.88200788  0.24807305  0.02485491     0.12900
H873        H  0.84763286  0.29584633  0.96532477     0.11600
H874        H  0.82697704  0.31719781  0.99331124     0.12800
H875        H  0.81606369  0.32453744  0.03243680     0.11800
H876        H  0.87221512  0.25407807  0.05854733     0.08900
H877        H  0.86019771  0.26234469  0.09650466     0.12200
H878        H  0.81775949  0.31593844  0.07229402     0.14100
C879        C  0.92235188  0.23718074  0.91591627    -0.01400
C880        C  0.92844710  0.21856363  0.92905362    -0.09500
C881        C  0.95004721  0.20933097  0.92746615    -0.18300
C882        C  0.96669241  0.21895467  0.91305270     0.04100
C883        C  0.96024567  0.23746156  0.89916078     0.18300
C884        C  0.93803473  0.24610851  0.90036153    -0.19700
C885        C  0.97633664  0.24791480  0.88507397    -0.21000
C886        C  0.99893064  0.24114579  0.88534068    -0.19500
C887        C  0.00598388  0.22353269  0.89947225     0.19700
C888        C  0.98977057  0.21169481  0.91293560     0.01800
C889        C  0.99753802  0.19367008  0.92647138    -0.14300
C890        C  0.02055738  0.18892973  0.92811937    -0.12000
C891        C  0.03672778  0.20156489  0.91608410     0.01300
C892        C  0.02926410  0.21827735  0.90100439    -0.24200
H893        H  0.91653310  0.21142712  0.94113293     0.09300
H894        H  0.95339509  0.19528990  0.93849108     0.12900
H895        H  0.93344836  0.26073015  0.89035560     0.11600
H896        H  0.97158468  0.26195656  0.87434846     0.12800
H897        H  0.01107491  0.25012378  0.87482544     0.11800
H898        H  0.98637054  0.18322381  0.93645516     0.08900
H899        H  0.02579506  0.17554133  0.93944107     0.12200
H900        H  0.04162093  0.22805867  0.89149052     0.14100
C901        C  0.77715220  0.58757152  0.34467342    -0.01400
C902        C  0.76620831  0.58307985  0.36530560    -0.09500
C903        C  0.76046752  0.56091223  0.37146633    -0.18300
C904        C  0.76551751  0.54236982  0.35709825     0.04100
C905        C  0.77638460  0.54707329  0.33608453     0.18300
C906        C  0.78199763  0.56939798  0.33011021    -0.19700
C907        C  0.78182288  0.52945380  0.32118125    -0.21000
C908        C  0.77687232  0.50713615  0.32674688    -0.19500
C909        C  0.76629948  0.50184937  0.34733973     0.19700
C910        C  0.76036370  0.51936444  0.36280324     0.01800
C911        C  0.74962952  0.51302159  0.38330267    -0.14300
C912        C  0.74513497  0.49032931  0.38825880    -0.12000
C913        C  0.75111738  0.47308793  0.37303594     0.01300
C914        C  0.76168132  0.47907593  0.35254954    -0.24200
H915        H  0.76229925  0.59673347  0.37691955     0.09300
H916        H  0.75224198  0.55885286  0.38767141     0.12900
H917        H  0.79041598  0.57256324  0.31405149     0.11600
H918        H  0.79009140  0.53295024  0.30512206     0.12800
H919        H  0.78140874  0.49389497  0.31486099     0.11800
H920        H  0.74449528  0.52519112  0.39590676     0.08900
H921        H  0.73690640  0.48632186  0.40419631     0.12200
H922        H  0.76641369  0.46598445  0.34056618     0.14100
C923        C  0.83072857  0.74517206  0.28372804    -0.01400
C924        C  0.81841441  0.76523172  0.28170589    -0.09500
C925        C  0.82922835  0.78532979  0.27462521    -0.18300
C926        C  0.85265557  0.78570365  0.26916899     0.04100
C927        C  0.86442846  0.76480367  0.26998965     0.18300
C928        C  0.85350042  0.74506502  0.27728126    -0.19700
C929        C  0.88733535  0.76367248  0.26419537    -0.21000
C930        C  0.89921128  0.78303245  0.25830734    -0.19500
C931        C  0.88856079  0.80405163  0.25839648     0.19700
C932        C  0.86511603  0.80589828  0.26353867     0.01800
C933        C  0.85566173  0.82791843  0.26357058    -0.14300
C934        C  0.86930897  0.84725681  0.25982432    -0.12000
C935        C  0.89261113  0.84509451  0.25575724     0.01300
C936        C  0.90170934  0.82331742  0.25421204    -0.24200
H937        H  0.80070100  0.76559065  0.28651572     0.09300
H938        H  0.81903334  0.80036522  0.27393627     0.12900
H939        H  0.86297830  0.72945756  0.27845231     0.11600
H940        H  0.89626042  0.74772865  0.26461153     0.12800
H941        H  0.91708919  0.78162871  0.25430858     0.11800
H942        H  0.83797503  0.83069083  0.26718651     0.08900
H943        H  0.86181822  0.86387265  0.26098888     0.12200
H944        H  0.91960015  0.82126590  0.25053713     0.14100
C945        C  0.08951363  0.35436786  0.20983097    -0.01400
C946        C  0.10570560  0.34675190  0.22532396    -0.09500
C947        C  0.11848829  0.32735338  0.22057466    -0.18300
C948        C  0.11518521  0.31495097  0.20016723     0.04100
C949        C  0.10005595  0.32404503  0.18383646     0.18300
C950        C  0.08762319  0.34355665  0.18873830    -0.19700
C951        C  0.09627286  0.31288671  0.16320545    -0.21000
C952        C  0.10621175  0.29215312  0.15884741    -0.19500
C953        C  0.12016501  0.28203871  0.17501904     0.19700
C954        C  0.12537773  0.29342844  0.19570522     0.01800
C955        C  0.13976643  0.28227305  0.21126518    -0.14300
C956        C  0.14788152  0.26045107  0.20675715    -0.12000
C957        C  0.14181582  0.24904447  0.18674263     0.01300
C958        C  0.12831661  0.26020478  0.17081433    -0.24200
H959        H  0.10730196  0.35479258  0.24179769     0.09300
H960        H  0.13004809  0.32189190  0.23357511     0.12900
H961        H  0.07510424  0.34945791  0.17668333     0.11600
H962        H  0.08493311  0.31989287  0.15062869     0.12800
H963        H  0.10240746  0.28364742  0.14295457     0.11800
H964        H  0.14463036  0.28979617  0.22724277     0.08900
H965        H  0.15828547  0.25217225  0.21933489     0.12200
H966        H  0.12374076  0.25163784  0.15514101     0.14100
C967        C  0.89557299  0.32843958  0.19200160    -0.01400
C968        C  0.91363742  0.31758441  0.18118624    -0.09500
C969        C  0.93607317  0.32368757  0.18598550    -0.18300
C970        C  0.94123100  0.34093823  0.20193780     0.04100
C971        C  0.92286665  0.35128337  0.21349440     0.18300
C972        C  0.90039004  0.34505308  0.20841045    -0.19700
C973        C  0.92699501  0.36805386  0.22983704    -0.21000
C974        C  0.94898777  0.37528258  0.23453991    -0.19500
C975        C  0.96741693  0.36601706  0.22293629     0.19700
C976        C  0.96385152  0.34852822  0.20663199     0.01800
C977        C  0.98306236  0.33971685  0.19546386    -0.14300
C978        C  0.00476078  0.34807772  0.20009857    -0.12000
C979        C  0.00820158  0.36554751  0.21592829     0.01300
C980        C  0.98939668  0.37434810  0.22738344    -0.24200
H981        H  0.91044132  0.30458450  0.16856218     0.09300
H982        H  0.94895131  0.31470131  0.17677064     0.12900
H983        H  0.88658022  0.35335302  0.21715961     0.11600
H984        H  0.91307713  0.37584126  0.23887411     0.12800
H985        H  0.95156887  0.38846830  0.24711988     0.11800
H986        H  0.98191851  0.32650051  0.18289066     0.08900
H987        H  0.01892991  0.34092700  0.19093492     0.12200
H988        H  0.99183973  0.38770883  0.23981226     0.14100
C989        C  0.13995287  0.72515421  0.28368358    -0.01400
C990        C  0.15169321  0.70497542  0.28724979    -0.09500
C991        C  0.14055534  0.68393516  0.28474680    -0.18300
C992        C  0.11727702  0.68264643  0.27870242     0.04100
C993        C  0.10612539  0.70330431  0.27378514     0.18300
C994        C  0.11749938  0.72404275  0.27615269    -0.19700
C995        C  0.08326335  0.70339580  0.26760823    -0.21000
C996        C  0.07075435  0.68348325  0.26722961    -0.19500
C997        C  0.08080155  0.66295218  0.27294693     0.19700
C998        C  0.10429552  0.66195691  0.27823760     0.01800
C999        C  0.11332213  0.64044135  0.28356469    -0.14300
C1000       C  0.09929280  0.62107045  0.28470083    -0.12000
C1001       C  0.07593828  0.62261716  0.28063118     0.01300
C1002       C  0.06709929  0.64354268  0.27412241    -0.24200
H1003       H  0.16906000  0.70548738  0.29319700     0.09300
H1004       H  0.15027147  0.66902677  0.28843731     0.12900
H1005       H  0.10840385  0.73965080  0.27324538     0.11600
H1006       H  0.07479068  0.71910723  0.26369407     0.12800
H1007       H  0.05289397  0.68424599  0.26299328     0.11800
H1008       H  0.13102838  0.63822560  0.28743496     0.08900
H1009       H  0.10656818  0.60507234  0.28964421     0.12200
H1010       H  0.04913539  0.64491289  0.27048384     0.14100
C1011       C  0.88566507  0.63668485  0.31284149    -0.01400
C1012       C  0.88918459  0.61410421  0.30654711    -0.09500
C1013       C  0.91109940  0.60542469  0.30491078    -0.18300
C1014       C  0.93033976  0.61920084  0.30937333     0.04100
C1015       C  0.92660604  0.64198002  0.31612667     0.18300
C1016       C  0.90451611  0.65037825  0.31794452    -0.19700
C1017       C  0.94494841  0.65645827  0.32061581    -0.21000
C1018       C  0.96703731  0.64903160  0.31788800    -0.19500
C1019       C  0.97134030  0.62687557  0.31080528     0.19700
C1020       C  0.95312036  0.61145115  0.30687863     0.01800
C1021       C  0.95857065  0.58911616  0.30025524    -0.14300
C1022       C  0.98108428  0.58269753  0.29685217    -0.12000
C1023       C  0.99889517  0.59826599  0.29984087     0.01300
C1024       C  0.99383800  0.62022405  0.30722045    -0.24200
H1025       H  0.87493273  0.60306820  0.30271480     0.09300
H1026       H  0.91241105  0.58798200  0.29978143     0.12900
H1027       H  0.90206434  0.66785348  0.32294489     0.11600
H1028       H  0.94219242  0.67380259  0.32588133     0.12800
H1029       H  0.98086581  0.66080297  0.32108591     0.11800
H1030       H  0.94582862  0.57627764  0.29733028     0.08900
H1031       H  0.98448073  0.56558523  0.29127610     0.12200
H1032       H  0.00746433  0.63236242  0.30991421     0.14100
C1033       C  0.05520068  0.54027409  0.28098148    -0.01400
C1034       C  0.07341529  0.53355051  0.26730501    -0.09500
C1035       C  0.07613867  0.51073531  0.26116508    -0.18300
C1036       C  0.06057006  0.49386008  0.26848992     0.04100
C1037       C  0.04273566  0.50073912  0.28313411     0.18300
C1038       C  0.04040016  0.52353915  0.28934013    -0.19700
C1039       C  0.02671979  0.48498536  0.29091178    -0.21000
C1040       C  0.02732938  0.46265530  0.28363349    -0.19500
C1041       C  0.04415396  0.45539684  0.26862726     0.19700
C1042       C  0.06145240  0.47063126  0.26130219     0.01800
C1043       C  0.07840942  0.46196518  0.24669704    -0.14300
C1044       C  0.07751858  0.43948606  0.23889406    -0.12000
C1045       C  0.05964858  0.42502440  0.24519568     0.01300
C1046       C  0.04333909  0.43305481  0.26046057    -0.24200
H1047       H  0.08514349  0.54605403  0.26062643     0.09300
H1048       H  0.09018127  0.50689790  0.25014367     0.12900
H1049       H  0.02640206  0.52835598  0.30021003     0.11600
H1050       H  0.01319826  0.49011664  0.30222027     0.12800
H1051       H  0.01427293  0.45105003  0.28948886     0.11800
H1052       H  0.09234312  0.47226825  0.24075043     0.08900
H1053       H  0.09035924  0.43369121  0.22714927     0.12200
H1054       H  0.02960909  0.42192343  0.26571406     0.14100
C1055       C  0.27879305  0.88918697  0.64773179    -0.01400
C1056       C  0.26533341  0.89249689  0.62843532    -0.09500
C1057       C  0.26086092  0.91430683  0.62049620    -0.18300
C1058       C  0.26987432  0.93367309  0.63159163     0.04100
C1059       C  0.28352084  0.93018869  0.65113902     0.18300
C1060       C  0.28770527  0.90822081  0.65901744    -0.19700
C1061       C  0.29311771  0.94864223  0.66267969    -0.21000
C1062       C  0.28949867  0.97058493  0.65524169    -0.19500
C1063       C  0.27609512  0.97467411  0.63612612     0.19700
C1064       C  0.26602454  0.95632592  0.62400156     0.01800
C1065       C  0.25261780  0.96152955  0.60482978    -0.14300
C1066       C  0.24952688  0.98392714  0.59795480    -0.12000
C1067       C  0.25950553  0.00194950  0.60996320     0.01300
C1068       C  0.27274333  0.99709647  0.62909278    -0.24200
H1069       H  0.25823657  0.87814869  0.61934082     0.09300
H1070       H  0.25042145  0.91542934  0.60554983     0.12900
H1071       H  0.29824216  0.90597878  0.67390430     0.11600
H1072       H  0.30358493  0.94608521  0.67755491     0.12800
H1073       H  0.29724253  0.98448173  0.66454432     0.11800
H1074       H  0.24426799  0.94867922  0.59479076     0.08900
H1075       H  0.23907977  0.98712340  0.58321436     0.12200
H1076       H  0.28065103  0.01082158  0.63852557     0.14100
C1077       C  0.32264804  0.72643157  0.70305578    -0.01400
C1078       C  0.33261075  0.72440800  0.72445219    -0.09500
C1079       C  0.34339327  0.70441504  0.73075111    -0.18300
C1080       C  0.34452060  0.68576908  0.71565525     0.04100
C1081       C  0.33305706  0.68752880  0.69448886     0.18300
C1082       C  0.32252721  0.70785901  0.68828976    -0.19700
C1083       C  0.33282665  0.66926148  0.67932421    -0.21000
C1084       C  0.34446091  0.64952856  0.68430504    -0.19500
C1085       C  0.35709528  0.64777102  0.70431762     0.19700
C1086       C  0.35721534  0.66580127  0.72039481     0.01800
C1087       C  0.37109722  0.66356460  0.73984641    -0.14300
C1088       C  0.38517927  0.64486705  0.74247952    -0.12000
C1089       C  0.38524289  0.62745969  0.72637877     0.01300
C1090       C  0.37065603  0.62861237  0.70771871    -0.24200
H1091       H  0.33284642  0.73869919  0.73601051     0.09300
H1092       H  0.35097161  0.70420458  0.74738304     0.12900
H1093       H  0.31478673  0.70949381  0.67168351     0.11600
H1094       H  0.32389104  0.67038350  0.66329896     0.12800
H1095       H  0.34426735  0.63586245  0.67200389     0.11800
H1096       H  0.37233645  0.67648047  0.75272854     0.08900
H1097       H  0.39666205  0.64433206  0.75681916     0.12200
H1098       H  0.37115407  0.61535862  0.69496372     0.14100
C1099       C  0.26994129  0.82961164  0.75657456    -0.01400
C1100       C  0.27859101  0.82054677  0.77664732    -0.09500
C1101       C  0.27382051  0.83072473  0.79761768    -0.18300
C1102       C  0.26023203  0.85034235  0.79891475     0.04100
C1103       C  0.25035056  0.85834625  0.77843910     0.18300
C1104       C  0.25536855  0.84803557  0.75762987    -0.19700
C1105       C  0.23636659  0.87729591  0.77860762    -0.21000
C1106       C  0.23301617  0.88942185  0.79846634    -0.19500
C1107       C  0.24372089  0.88298162  0.81857136     0.19700
C1108       C  0.25696071  0.86301482  0.81939780     0.01800
C1109       C  0.26726165  0.85745218  0.84038128    -0.14300
C1110       C  0.26587351  0.87208062  0.85912658    -0.12000
C1111       C  0.25412550  0.89247232  0.85746264     0.01300
C1112       C  0.24229202  0.89724280  0.83749689    -0.24200
H1113       H  0.28995873  0.80626726  0.77599822     0.09300
H1114       H  0.28153645  0.82332512  0.81238660     0.12900
H1115       H  0.24867294  0.85495975  0.74199077     0.11600
H1116       H  0.22855569  0.88322986  0.76310007     0.12800
H1117       H  0.22270046  0.90449307  0.79787816     0.11800
H1118       H  0.27726950  0.84244267  0.84251343     0.08900
H1119       H  0.27512764  0.86809418  0.87445801     0.12200
H1120       H  0.23292019  0.91290413  0.83626230     0.14100
C1121       C  0.63551511  0.28824882  0.89160149    -0.01400
C1122       C  0.61353026  0.28012186  0.89576617    -0.09500
C1123       C  0.60627921  0.27549771  0.91789549    -0.18300
C1124       C  0.62092677  0.27879899  0.93667545     0.04100
C1125       C  0.64326798  0.28686626  0.93226917     0.18300
C1126       C  0.65027759  0.29146693  0.91000662    -0.19700
C1127       C  0.65853029  0.29046576  0.95010859    -0.21000
C1128       C  0.65206697  0.28637188  0.97237382    -0.19500
C1129       C  0.63018475  0.27855240  0.97735633     0.19700
C1130       C  0.61427762  0.27453080  0.95963859     0.01800
C1131       C  0.59245325  0.26649434  0.96575922    -0.14300
C1132       C  0.58667428  0.26284985  0.98849138    -0.12000
C1133       C  0.60235338  0.26711815  0.00588567     0.01300
C1134       C  0.62413881  0.27485398  0.00007422    -0.24200
H1135       H  0.60172896  0.27760247  0.88188731     0.09300
H1136       H  0.58909517  0.26948672  0.91973707     0.12900
H1137       H  0.66736606  0.29769137  0.90705161     0.11600
H1138       H  0.67558786  0.29659035  0.94682803     0.12800
H1139       H  0.66426986  0.28942179  0.98581479     0.11800
H1140       H  0.57944516  0.26292790  0.95340572     0.08900
H1141       H  0.56973409  0.25684561  0.99243419     0.12200
H1142       H  0.63653592  0.27812682  0.01329036     0.14100
C1143       C  0.58221754  0.33859671  0.78966899    -0.01400
C1144       C  0.57770564  0.36172109  0.78771056    -0.09500
C1145       C  0.55560923  0.36928600  0.78391121    -0.18300
C1146       C  0.53725522  0.35381736  0.78167235     0.04100
C1147       C  0.54213800  0.33034665  0.78289065     0.18300
C1148       C  0.56433653  0.32303018  0.78703434    -0.19700
C1149       C  0.52481313  0.31424879  0.78016946    -0.21000
C1150       C  0.50255740  0.32091952  0.77671304    -0.19500
C1151       C  0.49700673  0.34386688  0.77607417     0.19700
C1152       C  0.51426179  0.36069076  0.77840307     0.01800
C1153       C  0.50765437  0.38361183  0.77761107    -0.14300
C1154       C  0.48494995  0.38950789  0.77468478    -0.12000
C1155       C  0.46797785  0.37287412  0.77261727     0.01300
C1156       C  0.47420639  0.35005348  0.77328052    -0.24200
H1157       H  0.59123994  0.37407410  0.78967116     0.09300
H1158       H  0.55345004  0.38732269  0.78289413     0.12900
H1159       H  0.56771131  0.30507031  0.78822212     0.11600
H1160       H  0.52847969  0.29633199  0.78086602     0.12800
H1161       H  0.48953702  0.30801002  0.77479272     0.11800
H1162       H  0.51958812  0.39739349  0.77935598     0.08900
H1163       H  0.48065196  0.40727834  0.77433180     0.12200
H1164       H  0.46128407  0.33701541  0.77151951     0.14100
C1165       C  0.69230687  0.33357032  0.73009524    -0.01400
C1166       C  0.68807761  0.32206619  0.70968704    -0.09500
C1167       C  0.69211024  0.33274859  0.68873293    -0.18300
C1168       C  0.70060917  0.35525244  0.68776923     0.04100
C1169       C  0.70615217  0.36602985  0.70871559     0.18300
C1170       C  0.70190624  0.35522002  0.72939713    -0.19700
C1171       C  0.71510470  0.38796906  0.70909327    -0.21000
C1172       C  0.71790303  0.39995906  0.68914353    -0.19500
C1173       C  0.71158502  0.39040828  0.66832854     0.19700
C1174       C  0.70314479  0.36784544  0.66708746     0.01800
C1175       C  0.69685883  0.35945218  0.64534905    -0.14300
C1176       C  0.69778807  0.37338810  0.62599387    -0.12000
C1177       C  0.70516483  0.39593616  0.62776785     0.01300
C1178       C  0.71281673  0.40386419  0.64889024    -0.24200
H1179       H  0.68060307  0.30527185  0.70993928     0.09300
H1180       H  0.68792967  0.32327910  0.67360574     0.12900
H1181       H  0.70534678  0.36406130  0.74521876     0.11600
H1182       H  0.71952228  0.39612644  0.72501385     0.12800
H1183       H  0.72442668  0.41713695  0.69009106     0.11800
H1184       H  0.69043558  0.34247280  0.64298555     0.08900
H1185       H  0.69177550  0.36683280  0.60988335     0.12200
H1186       H  0.71893577  0.42115772  0.65047618     0.14100
C1187       C  0.85013417  0.27226850  0.89208383    -0.01400
C1188       C  0.84115614  0.29405143  0.89195739    -0.09500
C1189       C  0.82228199  0.29911374  0.87871554    -0.18300
C1190       C  0.81120136  0.28218234  0.86565340     0.04100
C1191       C  0.82089008  0.26023949  0.86520149     0.18300
C1192       C  0.84045524  0.25559114  0.87807151    -0.19700
C1193       C  0.81035699  0.24283407  0.85279630    -0.21000
C1194       C  0.78997560  0.24651050  0.84146560    -0.19500
C1195       C  0.77960169  0.26772156  0.84214742     0.19700
C1196       C  0.79033753  0.28597146  0.85392348     0.01800
C1197       C  0.77927078  0.30704370  0.85419270    -0.14300
C1198       C  0.75799137  0.30955428  0.84438375    -0.12000
C1199       C  0.74699937  0.29142064  0.83352892     0.01300
C1200       C  0.75818205  0.27064609  0.83183122    -0.24200
H1201       H  0.84842337  0.30711193  0.90273628     0.09300
H1202       H  0.81632502  0.31624226  0.87981050     0.12900
H1203       H  0.84720475  0.23859336  0.87842324     0.11600
H1204       H  0.81763778  0.22607321  0.85232948     0.12800
H1205       H  0.78202624  0.23251522  0.83249849     0.11800
H1206       H  0.78631020  0.32186214  0.86229481     0.08900
H1207       H  0.74983731  0.32586875  0.84563666     0.12200
H1208       H  0.74975916  0.25650871  0.82352627     0.14100
C1209       C  0.79947635  0.39417512  0.14382400    -0.01400
C1210       C  0.81033393  0.41222423  0.15498238    -0.09500
C1211       C  0.80690290  0.43458048  0.14821366    -0.18300
C1212       C  0.79224901  0.43980776  0.12997567     0.04100
C1213       C  0.78109875  0.42151701  0.11877806     0.18300
C1214       C  0.78488717  0.39903526  0.12564139    -0.19700
C1215       C  0.76611732  0.42578135  0.10087322    -0.21000
C1216       C  0.76190746  0.44782714  0.09384765    -0.19500
C1217       C  0.77266377  0.46624021  0.10443268     0.19700
C1218       C  0.78809119  0.46247745  0.12258856     0.01800
C1219       C  0.79861556  0.48159933  0.13261092    -0.14300
C1220       C  0.79363814  0.50343490  0.12534680    -0.12000
C1221       C  0.77815901  0.50720427  0.10771160     0.01300
C1222       C  0.76793291  0.48842531  0.09710800    -0.24200
H1223       H  0.82168054  0.40908398  0.16905316     0.09300
H1224       H  0.81589726  0.44738199  0.15773914     0.12900
H1225       H  0.77623166  0.38529636  0.11691135     0.11600
H1226       H  0.75748905  0.41194522  0.09228422     0.12800
H1227       H  0.75011659  0.45049007  0.08002750     0.11800
H1228       H  0.81073995  0.48031305  0.14619690     0.08900
H1229       H  0.80205349  0.51752343  0.13371267     0.12200
H1230       H  0.75591569  0.49106720  0.08347109     0.14100
C1231       C  0.77676108  0.58690847  0.12883401    -0.01400
C1232       C  0.76134789  0.60408377  0.13395726    -0.09500
C1233       C  0.76370602  0.61691916  0.15398067    -0.18300
C1234       C  0.78161807  0.61280093  0.16945761     0.04100
C1235       C  0.79792740  0.59633598  0.16319073     0.18300
C1236       C  0.79541845  0.58382077  0.14312927    -0.19700
C1237       C  0.81622268  0.59162688  0.17742408    -0.21000
C1238       C  0.81831787  0.60228307  0.19828818    -0.19500
C1239       C  0.80213216  0.61787291  0.20548472     0.19700
C1240       C  0.78370433  0.62373600  0.19116569     0.01800
C1241       C  0.76799099  0.63973084  0.19959387    -0.14300
C1242       C  0.77027119  0.64897103  0.22151464    -0.12000
C1243       C  0.78816418  0.64249266  0.23568077     0.01300
C1244       C  0.80416083  0.62721137  0.22725896    -0.24200
H1245       H  0.74676092  0.60673379  0.12316030     0.09300
H1246       H  0.75091359  0.62941525  0.15727859     0.12900
H1247       H  0.80757106  0.57072176  0.13913024     0.11600
H1248       H  0.82875851  0.57919848  0.17260890     0.12800
H1249       H  0.83247188  0.59791291  0.20910402     0.11800
H1250       H  0.75363029  0.64512978  0.18975760     0.08900
H1251       H  0.75772322  0.66082003  0.22755937     0.12200
H1252       H  0.81830389  0.62228268  0.23785371     0.14100
C1253       C  0.72003391  0.58480895  0.85298953    -0.01400
C1254       C  0.71277656  0.60720435  0.85552781    -0.09500
C1255       C  0.70989543  0.62112968  0.83640065    -0.18300
C1256       C  0.71393831  0.61282620  0.81414323     0.04100
C1257       C  0.72257732  0.59054474  0.81204606     0.18300
C1258       C  0.72591470  0.57714954  0.83125715    -0.19700
C1259       C  0.72669491  0.58108792  0.79068220    -0.21000
C1260       C  0.72106963  0.59269530  0.77114312    -0.19500
C1261       C  0.71160241  0.61422609  0.77247676     0.19700
C1262       C  0.70869819  0.62511938  0.79384837     0.01800
C1263       C  0.69990240  0.64737813  0.79377990    -0.14300
C1264       C  0.69297067  0.65763867  0.77343937    -0.12000
C1265       C  0.69438811  0.64588438  0.75281041     0.01300
C1266       C  0.70427783  0.62451700  0.75245088    -0.24200
H1267       H  0.70821632  0.61359302  0.87214315     0.09300
H1268       H  0.70353574  0.63791770  0.83940826     0.12900
H1269       H  0.73199776  0.56001650  0.82907161     0.11600
H1270       H  0.73344956  0.56416468  0.78906467     0.12800
H1271       H  0.72362676  0.58451776  0.75486008     0.11800
H1272       H  0.69781662  0.65700435  0.80920273     0.08900
H1273       H  0.68557151  0.67433405  0.77396947     0.12200
H1274       H  0.70579253  0.61558794  0.73640617     0.14100
C1275       C  0.70909140  0.50573528  0.87504367    -0.01400
C1276       C  0.70916885  0.48828812  0.89111003    -0.09500
C1277       C  0.70463623  0.46587242  0.88472506    -0.18300
C1278       C  0.69966233  0.46008408  0.86190617     0.04100
C1279       C  0.69968045  0.47781449  0.84566412     0.18300
C1280       C  0.70449664  0.50022403  0.85228004    -0.19700
C1281       C  0.69464046  0.47315209  0.82289694    -0.21000
C1282       C  0.68925149  0.45127486  0.81589306    -0.19500
C1283       C  0.68895409  0.43340721  0.83142105     0.19700
C1284       C  0.69441846  0.43747136  0.85461712     0.01800
C1285       C  0.69432034  0.41870972  0.86944946    -0.14300
C1286       C  0.68880531  0.39698936  0.86163987    -0.12000
C1287       C  0.68303087  0.39308161  0.83884677     0.01300
C1288       C  0.68320294  0.41146890  0.82383313    -0.24200
H1289       H  0.71271016  0.49193851  0.90878921     0.09300
H1290       H  0.70492374  0.45350538  0.89810841     0.12900
H1291       H  0.70431679  0.51347499  0.83960255     0.11600
H1292       H  0.69465505  0.48658578  0.81041735     0.12800
H1293       H  0.68524393  0.44831842  0.79817347     0.11800
H1294       H  0.69849647  0.42022756  0.88719031     0.08900
H1295       H  0.68893725  0.38315948  0.87365238     0.12200
H1296       H  0.67903008  0.40869897  0.80611506     0.14100
C1297       C  0.72052834  0.56272831  0.93515357    -0.01400
C1298       C  0.73345649  0.58094047  0.94358132    -0.09500
C1299       C  0.73763600  0.58317057  0.96703823    -0.18300
C1300       C  0.72904492  0.56707145  0.98274374     0.04100
C1301       C  0.71495199  0.54945794  0.97402058     0.18300
C1302       C  0.71068680  0.54766851  0.95069430    -0.19700
C1303       C  0.70592676  0.53294514  0.98843940    -0.21000
C1304       C  0.71165398  0.53263275  0.01123524    -0.19500
C1305       C  0.72629445  0.54901641  0.02029195     0.19700
C1306       C  0.73460055  0.56701401  0.00651400     0.01800
C1307       C  0.74866841  0.58350829  0.01709190    -0.14300
C1308       C  0.75529816  0.58129026  0.03992109    -0.12000
C1309       C  0.74829742  0.56252373  0.05274876     0.01300
C1310       C  0.73328253  0.54689423  0.04293678    -0.24200
H1311       H  0.74116591  0.59291555  0.93197511     0.09300
H1312       H  0.74827279  0.59714129  0.97233599     0.12900
H1313       H  0.70026665  0.53376399  0.94449886     0.11600
H1314       H  0.69498942  0.51963583  0.98186505     0.12800
H1315       H  0.70501328  0.51910106  0.02175459     0.11800
H1316       H  0.75516493  0.59797153  0.00798180     0.08900
H1317       H  0.76679203  0.59370903  0.04721530     0.12200
H1318       H  0.72744886  0.53256243  0.05287455     0.14100
C1319       C  0.34535818  0.76386629  0.39951462    -0.01400
C1320       C  0.34796461  0.77266152  0.37758236    -0.09500
C1321       C  0.32921424  0.77426813  0.36290122    -0.18300
C1322       C  0.30726668  0.76712349  0.36987305     0.04100
C1323       C  0.30523597  0.75709296  0.39170040     0.18300
C1324       C  0.32407947  0.75542702  0.40599994    -0.19700
C1325       C  0.28419266  0.74957264  0.39970936    -0.21000
C1326       C  0.26474710  0.75278776  0.38702077    -0.19500
C1327       C  0.26585699  0.76348797  0.36593893     0.19700
C1328       C  0.28710094  0.77028532  0.35661077     0.01800
C1329       C  0.28689942  0.78067153  0.33492061    -0.14300
C1330       C  0.26634797  0.78526168  0.32375329    -0.12000
C1331       C  0.24558543  0.77964136  0.33391723     0.01300
C1332       C  0.24558026  0.76824573  0.35464005    -0.24200
H1333       H  0.36426302  0.77924929  0.37214677     0.09300
H1334       H  0.33220528  0.78178901  0.34650882     0.12900
H1335       H  0.32192991  0.74822183  0.42278651     0.11600
H1336       H  0.28264648  0.74175255  0.41626326     0.12800
H1337       H  0.24860636  0.74738457  0.39404365     0.11800
H1338       H  0.30230044  0.78596940  0.32654296     0.08900
H1339       H  0.26665320  0.79417232  0.30772122     0.12200
H1340       H  0.22949203  0.76381198  0.36246530     0.14100
C1341       C  0.32785838  0.79055528  0.59318542    -0.01400
C1342       C  0.34991044  0.78273112  0.58947421    -0.09500
C1343       C  0.35792951  0.77881614  0.56753622    -0.18300
C1344       C  0.34403433  0.78252109  0.54837434     0.04100
C1345       C  0.32157564  0.79023255  0.55220576     0.18300
C1346       C  0.31377495  0.79425820  0.57439918    -0.19700
C1347       C  0.30701105  0.79390570  0.53386369    -0.21000
C1348       C  0.31426646  0.79014019  0.51173474    -0.19500
C1349       C  0.33632824  0.78276769  0.50736331     0.19700
C1350       C  0.35159067  0.77889842  0.52558413     0.01800
C1351       C  0.37378314  0.77175431  0.52014267    -0.14300
C1352       C  0.38051973  0.76878270  0.49760069    -0.12000
C1353       C  0.36540009  0.77256340  0.47970721     0.01300
C1354       C  0.34325213  0.77941754  0.48478842    -0.24200
H1355       H  0.36119847  0.77973885  0.60363034     0.09300
H1356       H  0.37506200  0.77286027  0.56619770     0.12900
H1357       H  0.29663790  0.80020248  0.57702180     0.11600
H1358       H  0.28986206  0.79973059  0.53664734     0.12800
H1359       H  0.30255913  0.79314808  0.49791711     0.11800
H1360       H  0.38641376  0.76848546  0.53286332     0.08900
H1361       H  0.39768975  0.76337211  0.49420510     0.12200
H1362       H  0.33140387  0.78252947  0.47111141     0.14100
C1363       C  0.60185384  0.72098991  0.47979839    -0.01400
C1364       C  0.58647386  0.72435084  0.49760300    -0.09500
C1365       C  0.59278366  0.72042318  0.52013578    -0.18300
C1366       C  0.61481155  0.71286199  0.52565099     0.04100
C1367       C  0.63035471  0.70957362  0.50752283     0.18300
C1368       C  0.62381244  0.71364950  0.48501096    -0.19700
C1369       C  0.65235769  0.70208491  0.51189851    -0.21000
C1370       C  0.65920750  0.69735163  0.53391433    -0.19500
C1371       C  0.64424871  0.70003075  0.55213579     0.19700
C1372       C  0.62192588  0.70812018  0.54837093     0.01800
C1373       C  0.60768739  0.71080448  0.56750264    -0.14300
C1374       C  0.61506460  0.70500302  0.58926162    -0.12000
C1375       C  0.63682522  0.69633029  0.59276741     0.01300
C1376       C  0.65142837  0.69426626  0.57409120    -0.24200
H1377       H  0.56945017  0.73012299  0.49415691     0.09300
H1378       H  0.57998520  0.72335557  0.53283219     0.12900
H1379       H  0.63596364  0.71096690  0.47147675     0.11600
H1380       H  0.66431191  0.69964806  0.49814850     0.12800
H1381       H  0.67628361  0.69132642  0.53668076     0.11800
H1382       H  0.59066227  0.71712285  0.56620270     0.08900
H1383       H  0.60344695  0.70691404  0.60335925     0.12200
H1384       H  0.66840214  0.68782322  0.57655851     0.14100
C1385       C  0.62506556  0.72898576  0.40080382    -0.01400
C1386       C  0.62263329  0.72223489  0.37810501    -0.09500
C1387       C  0.64187396  0.71936214  0.36426467    -0.18300
C1388       C  0.66405720  0.72302324  0.37296452     0.04100
C1389       C  0.66601496  0.73112117  0.39562725     0.18300
C1390       C  0.64675257  0.73430695  0.40896167    -0.19700
C1391       C  0.68725697  0.73495032  0.40546595    -0.21000
C1392       C  0.70682497  0.72953369  0.39381478    -0.19500
C1393       C  0.70561195  0.72048461  0.37192595     0.19700
C1394       C  0.68438926  0.71790134  0.36068701     0.01800
C1395       C  0.68461802  0.70941417  0.33813897    -0.14300
C1396       C  0.70490649  0.70216544  0.32801251    -0.12000
C1397       C  0.72529787  0.70309955  0.34016463     0.01300
C1398       C  0.72557926  0.71305591  0.36168777    -0.24200
H1399       H  0.60599947  0.71819747  0.37137393     0.09300
H1400       H  0.63898813  0.71343355  0.34717042     0.12900
H1401       H  0.64880088  0.74008778  0.42634690     0.11600
H1402       H  0.68873753  0.74131885  0.42268461     0.12800
H1403       H  0.72301316  0.73182014  0.40226016     0.11800
H1404       H  0.66932598  0.70764793  0.32824160     0.08900
H1405       H  0.70446022  0.69478593  0.31117002     0.12200
H1406       H  0.74147480  0.71428137  0.37090867     0.14100
C1407       C  0.54509619  0.74384382  0.42352364    -0.01400
C1408       C  0.53239442  0.73580253  0.40505698    -0.09500
C1409       C  0.50926305  0.74104163  0.40309037    -0.18300
C1410       C  0.49828957  0.75463023  0.41959544     0.04100
C1411       C  0.51184431  0.76377709  0.43742176     0.18300
C1412       C  0.53481868  0.75833516  0.43917238    -0.19700
C1413       C  0.50229120  0.77767633  0.45402236    -0.21000
C1414       C  0.47923524  0.78187997  0.45405497    -0.19500
C1415       C  0.46514058  0.77225118  0.43751268     0.19700
C1416       C  0.47436524  0.75891391  0.41968633     0.01800
C1417       C  0.45905294  0.74990083  0.40337570    -0.14300
C1418       C  0.43553822  0.75307040  0.40546723    -0.12000
C1419       C  0.42663654  0.76525898  0.42382112     0.01300
C1420       C  0.44169684  0.77531535  0.43931115    -0.24200
H1421       H  0.54008322  0.72463849  0.39270510     0.09300
H1422       H  0.50027031  0.73380758  0.38885275     0.12900
H1423       H  0.54469323  0.76492910  0.45329253     0.11600
H1424       H  0.51264374  0.78488079  0.46746574     0.12800
H1425       H  0.47227767  0.79224803  0.46752263     0.11800
H1426       H  0.46472650  0.73986167  0.38920265     0.08900
H1427       H  0.42426809  0.74520144  0.39320856     0.12200
H1428       H  0.43507114  0.78513570  0.45336784     0.14100
C1429       C  0.09783976  0.77549028  0.50652039    -0.01400
C1430       C  0.08325582  0.76955321  0.48869960    -0.09500
C1431       C  0.09028747  0.77164793  0.46612639    -0.18300
C1432       C  0.11215254  0.78012466  0.46069173     0.04100
C1433       C  0.12659004  0.78668891  0.47890839     0.18300
C1434       C  0.11947226  0.78405050  0.50145161    -0.19700
C1435       C  0.14804067  0.79598571  0.47457664    -0.21000
C1436       C  0.15552245  0.79902264  0.45244374    -0.19500
C1437       C  0.14191296  0.79243164  0.43410266     0.19700
C1438       C  0.12015105  0.78260198  0.43791775     0.01800
C1439       C  0.10743240  0.77563097  0.41876317    -0.14300
C1440       C  0.11573345  0.77883841  0.39680414    -0.12000
C1441       C  0.13691678  0.78911527  0.39311207     0.01300
C1442       C  0.14997795  0.79570035  0.41192113    -0.24200
H1443       H  0.06645076  0.76291362  0.49221797     0.09300
H1444       H  0.07815530  0.76670085  0.45334969     0.12900
H1445       H  0.13077075  0.78899501  0.51514692     0.11600
H1446       H  0.15905531  0.80112401  0.48841995     0.12800
H1447       H  0.17213690  0.80647610  0.44965765     0.11800
H1448       H  0.09104914  0.76758395  0.42016270     0.08900
H1449       H  0.10530802  0.77344615  0.38262140     0.12200
H1450       H  0.16646726  0.80351485  0.40933822     0.14100
C1451       C  0.11972326  0.76478096  0.58551409    -0.01400
C1452       C  0.11748422  0.77154652  0.60820991    -0.09500
C1453       C  0.13645501  0.77222492  0.62261522    -0.18300
C1454       C  0.15826427  0.76623660  0.61456504     0.04100
C1455       C  0.15998007  0.75830375  0.59183245     0.18300
C1456       C  0.14088863  0.75741942  0.57782486    -0.19700
C1457       C  0.18092620  0.75215261  0.58272394    -0.21000
C1458       C  0.20056977  0.75475707  0.59532755    -0.19500
C1459       C  0.19970775  0.76340996  0.61739162     0.19700
C1460       C  0.17857436  0.76866664  0.62771621     0.01800
C1461       C  0.17897039  0.77693296  0.65033823    -0.14300
C1462       C  0.19958722  0.78115089  0.66154521    -0.12000
C1463       C  0.22018276  0.77728085  0.65047613     0.01300
C1464       C  0.22007824  0.76778035  0.62876611    -0.24200
H1465       H  0.10127405  0.77723178  0.61457593     0.09300
H1466       H  0.13370119  0.77817535  0.63969930     0.12900
H1467       H  0.14277231  0.75173504  0.56040687     0.11600
H1468       H  0.18222545  0.74595148  0.56544154     0.12800
H1469       H  0.21663933  0.75052881  0.58752793     0.11800
H1470       H  0.16368197  0.78089226  0.65950002     0.08900
H1471       H  0.19944296  0.78855505  0.67838295     0.12200
H1472       H  0.23609738  0.76464934  0.62029594     0.14100
C1473       C  0.84867065  0.71278677  0.59534511    -0.01400
C1474       C  0.84200669  0.72801294  0.61225797    -0.09500
C1475       C  0.82327314  0.72311724  0.62611862    -0.18300
C1476       C  0.81076110  0.70271553  0.62337103     0.04100
C1477       C  0.81889501  0.68670043  0.60730362     0.18300
C1478       C  0.83754968  0.69189491  0.59353205    -0.19700
C1479       C  0.80774170  0.66597252  0.60421338    -0.21000
C1480       C  0.78781141  0.66123983  0.61576337    -0.19500
C1481       C  0.77845310  0.67722481  0.63048921     0.19700
C1482       C  0.78997969  0.69796074  0.63506996     0.01800
C1483       C  0.77955673  0.71334800  0.65025521    -0.14300
C1484       C  0.75795459  0.70888184  0.65925069    -0.12000
C1485       C  0.74622367  0.68899930  0.65343098     0.01300
C1486       C  0.75702632  0.67292629  0.63977710    -0.24200
H1487       H  0.85046714  0.74427030  0.61389037     0.09300
H1488       H  0.81855552  0.73587362  0.63830178     0.12900
H1489       H  0.84287927  0.67998090  0.58057953     0.11600
H1490       H  0.81409541  0.65360298  0.59222993     0.12800
H1491       H  0.77919195  0.64529715  0.61247318     0.11800
H1492       H  0.78733508  0.72927085  0.65486317     0.08900
H1493       H  0.75003332  0.72144535  0.66998457     0.12200
H1494       H  0.74829755  0.65723363  0.63559421     0.14100
C1495       C  0.86648402  0.71624047  0.51436392    -0.01400
C1496       C  0.88057068  0.72244217  0.49620026    -0.09500
C1497       C  0.87413465  0.71800385  0.47375218    -0.18300
C1498       C  0.85323441  0.70716871  0.46868001     0.04100
C1499       C  0.83918379  0.70066025  0.48718636     0.18300
C1500       C  0.84585813  0.70521892  0.50961089    -0.19700
C1501       C  0.81845570  0.68965423  0.48326940    -0.21000
C1502       C  0.81129479  0.68490667  0.46130695    -0.19500
C1503       C  0.82460868  0.69115870  0.44267240     0.19700
C1504       C  0.84572740  0.70249659  0.44601812     0.01800
C1505       C  0.85828639  0.70868622  0.42651781    -0.14300
C1506       C  0.85032870  0.70357792  0.40473174    -0.12000
C1507       C  0.82965959  0.69207707  0.40154223     0.01300
C1508       C  0.81687193  0.68603768  0.42067709    -0.24200
H1509       H  0.89666432  0.73084684  0.49929486     0.09300
H1510       H  0.88589812  0.72325552  0.46076173     0.12900
H1511       H  0.83478505  0.70018948  0.52342543     0.11600
H1512       H  0.80768901  0.68463592  0.49732208     0.12800
H1513       H  0.79517475  0.67630067  0.45888089     0.11800
H1514       H  0.87432936  0.71748904  0.42751397     0.08900
H1515       H  0.86061003  0.70847329  0.39029785     0.12200
H1516       H  0.80081297  0.67723788  0.41849237     0.14100
C1517       C  0.92082015  0.74768341  0.56946973    -0.01400
C1518       C  0.92854546  0.76471549  0.55492756    -0.09500
C1519       C  0.95095740  0.77225748  0.55576196    -0.18300
C1520       C  0.96669997  0.76236762  0.57078119     0.04100
C1521       C  0.95843912  0.74605591  0.58652288     0.18300
C1522       C  0.93550911  0.73917271  0.58601425    -0.19700
C1523       C  0.97340402  0.73575220  0.60169270    -0.21000
C1524       C  0.99660772  0.74023035  0.60062085    -0.19500
C1525       C  0.00542199  0.75517242  0.58439219     0.19700
C1526       C  0.99048978  0.76701162  0.56973839     0.01800
C1527       C  0.00014644  0.78201536  0.55374005    -0.14300
C1528       C  0.02353690  0.78369855  0.55107407    -0.12000
C1529       C  0.03821284  0.77100446  0.56455281     0.01300
C1530       C  0.02910851  0.75750015  0.58189525    -0.24200
H1531       H  0.91731674  0.77171757  0.54225751     0.09300
H1532       H  0.95558781  0.78514769  0.54369467     0.12900
H1533       H  0.92956233  0.72592098  0.59728947     0.11600
H1534       H  0.96723109  0.72347700  0.61389754     0.12800
H1535       H  0.00781309  0.73133050  0.61203496     0.11800
H1536       H  0.99013560  0.79215444  0.54243676     0.08900
H1537       H  0.03020092  0.79466293  0.53791786     0.12200
H1538       H  0.04038602  0.74770099  0.59247452     0.14100
C1539       C  0.50126639  0.10808566  0.77489256    -0.01400
C1540       C  0.49667671  0.13130618  0.77573344    -0.09500
C1541       C  0.47476525  0.13908397  0.77960011    -0.18300
C1542       C  0.45645282  0.12382870  0.78270789     0.04100
C1543       C  0.46121353  0.10028816  0.78240203     0.18300
C1544       C  0.48342771  0.09267267  0.77860528    -0.19700
C1545       C  0.44372030  0.08446766  0.78560126    -0.21000
C1546       C  0.42149545  0.09149122  0.78874986    -0.19500
C1547       C  0.41619209  0.11452323  0.78886024     0.19700
C1548       C  0.43361302  0.13105693  0.78598086     0.01800
C1549       C  0.42736983  0.15409833  0.78645822    -0.14300
C1550       C  0.40492291  0.16041277  0.79001539    -0.12000
C1551       C  0.38783358  0.14409506  0.79290145     0.01300
C1552       C  0.39355675  0.12113953  0.79203827    -0.24200
H1553       H  0.51006962  0.14367995  0.77316018     0.09300
H1554       H  0.47274919  0.15717385  0.77984982     0.12900
H1555       H  0.48671591  0.07466201  0.77819155     0.11600
H1556       H  0.44722504  0.06650174  0.78549990     0.12800
H1557       H  0.40834068  0.07879692  0.79107337     0.11800
H1558       H  0.43942081  0.16771472  0.78430347     0.08900
H1559       H  0.40091442  0.17825514  0.79049764     0.12200
H1560       H  0.38045667  0.10838705  0.79443861     0.14100
C1561       C  0.63979392  0.22928118  0.77902276    -0.01400
C1562       C  0.65140943  0.20899715  0.78244486    -0.09500
C1563       C  0.64151286  0.18814438  0.77615939    -0.18300
C1564       C  0.61975268  0.18709975  0.76594486     0.04100
C1565       C  0.60897713  0.20798222  0.76108084     0.18300
C1566       C  0.61885700  0.22859407  0.76787467    -0.19700
C1567       C  0.58796751  0.20825543  0.75012237    -0.21000
C1568       C  0.57672386  0.18821465  0.74493977    -0.19500
C1569       C  0.58595823  0.16740026  0.75104907     0.19700
C1570       C  0.60779333  0.16632257  0.76118589     0.01800
C1571       C  0.61590032  0.14461465  0.76723417    -0.14300
C1572       C  0.60200963  0.12520929  0.76517936    -0.12000
C1573       C  0.57989045  0.12688362  0.75670077     0.01300
C1574       C  0.57264409  0.14783013  0.74846046    -0.24200
H1575       H  0.66770798  0.20918321  0.79090300     0.09300
H1576       H  0.65103631  0.17310769  0.77982477     0.12900
H1577       H  0.60996003  0.24428863  0.76487094     0.11600
H1578       H  0.57988270  0.22412367  0.74603868     0.12800
H1579       H  0.56015992  0.18906449  0.73703124     0.11800
H1580       H  0.63238921  0.14235099  0.77474408     0.08900
H1581       H  0.60803767  0.10921344  0.77161409     0.12200
H1582       H  0.55568256  0.14924486  0.74150765     0.14100
C1583       C  0.57340724  0.84814128  0.72526598    -0.01400
C1584       C  0.59529274  0.85090952  0.71646298    -0.09500
C1585       C  0.60947689  0.83214483  0.71355067    -0.18300
C1586       C  0.60208997  0.81004719  0.71953241     0.04100
C1587       C  0.58018439  0.80772269  0.72937748     0.18300
C1588       C  0.56626948  0.82657924  0.73214482    -0.19700
C1589       C  0.57184775  0.78646979  0.73577479    -0.21000
C1590       C  0.58434958  0.76716342  0.73164939    -0.19500
C1591       C  0.60555401  0.76865472  0.72115943     0.19700
C1592       C  0.61513615  0.79008017  0.71548299     0.01800
C1593       C  0.63697108  0.79035067  0.70539430    -0.14300
C1594       C  0.64812857  0.77013109  0.70006177    -0.12000
C1595       C  0.63778139  0.74923869  0.70452417     0.01300
C1596       C  0.61682314  0.74865966  0.71555970    -0.24200
H1597       H  0.60110655  0.86744331  0.71099391     0.09300
H1598       H  0.62587817  0.83534133  0.70610592     0.12900
H1599       H  0.54942848  0.82435814  0.73924953     0.11600
H1600       H  0.55524302  0.78469391  0.74348294     0.12800
H1601       H  0.57713694  0.75087788  0.73623351     0.11800
H1602       H  0.64556079  0.80588211  0.70095928     0.08900
H1603       H  0.66434473  0.77082260  0.69145562     0.12200
H1604       H  0.60889214  0.73242184  0.71913647     0.14100
C1605       C  0.49455257  0.87147628  0.71775562    -0.01400
C1606       C  0.47708409  0.88709887  0.72090730    -0.09500
C1607       C  0.45450803  0.88105545  0.71665640    -0.18300
C1608       C  0.44863513  0.85903744  0.70906120     0.04100
C1609       C  0.46648782  0.84342841  0.70548013     0.18300
C1610       C  0.48903799  0.84971574  0.70984482    -0.19700
C1611       C  0.46178991  0.82152363  0.69766088    -0.21000
C1612       C  0.43965110  0.81465508  0.69339560    -0.19500
C1613       C  0.42164717  0.82947366  0.69697348     0.19700
C1614       C  0.42578492  0.85187220  0.70491716     0.01800
C1615       C  0.40684330  0.86597014  0.70848937    -0.14300
C1616       C  0.38482064  0.85815714  0.70420293    -0.12000
C1617       C  0.38091862  0.83614022  0.69612753     0.01300
C1618       C  0.39947768  0.82191804  0.69262280    -0.24200
H1619       H  0.48081227  0.90407572  0.72686087     0.09300
H1620       H  0.44206651  0.89398755  0.71950748     0.12900
H1621       H  0.50234265  0.83746754  0.70711784     0.11600
H1622       H  0.47535040  0.80958446  0.69484490     0.12800
H1623       H  0.43658204  0.79756724  0.68734462     0.11800
H1624       H  0.40845822  0.88309333  0.71462319     0.08900
H1625       H  0.37079952  0.86953627  0.70701128     0.12200
H1626       H  0.39670352  0.80480602  0.68648247     0.14100
C1627       C  0.55145129  0.92747783  0.74203685    -0.01400
C1628       C  0.53847971  0.93636774  0.75975180    -0.09500
C1629       C  0.54024688  0.95912545  0.76578960    -0.18300
C1630       C  0.55471787  0.97407374  0.75377175     0.04100
C1631       C  0.56830269  0.96485866  0.73610241     0.18300
C1632       C  0.56688156  0.94160307  0.73068554    -0.19700
C1633       C  0.58243011  0.97911290  0.72332618    -0.21000
C1634       C  0.58279422  0.00240453  0.72716983    -0.19500
C1635       C  0.56925687  0.01207952  0.74409451     0.19700
C1636       C  0.55541696  0.99793489  0.75798355     0.01800
C1637       C  0.54230167  0.00839192  0.77504064    -0.14300
C1638       C  0.54180156  0.03184275  0.77725359    -0.12000
C1639       C  0.55458387  0.04587800  0.76291628     0.01300
C1640       C  0.56886582  0.03585717  0.74676923    -0.24200
H1641       H  0.52644081  0.92567309  0.76867697     0.09300
H1642       H  0.52939299  0.96459850  0.77941724     0.12900
H1643       H  0.57671669  0.93479839  0.71673196     0.11600
H1644       H  0.59284212  0.97226905  0.70983960     0.12800
H1645       H  0.59348300  0.01297800  0.71656016     0.11800
H1646       H  0.53184115  0.99897997  0.78673598     0.08900
H1647       H  0.53089180  0.03911342  0.79009507     0.12200
H1648       H  0.57877494  0.04656197  0.73554176     0.14100
loop_ 
_geom_bond_atom_site_label_1 
_geom_bond_atom_site_label_2 
_geom_bond_distance 
_geom_bond_site_symmetry_2 
_ccdc_geom_bond_type 
C1            N2   1.360       .  A
C1            N6   1.366       .  A
C1         C1627   1.476       .  S
N2            C3   1.355       .  A
C3            N4   1.353       .  A
C3         C1605   1.484       .  S
N4            C5   1.357       .  A
C5            N6   1.365       .  A
C5         C1583   1.480       .  S
C7            N8   1.370       .  A
C7           N12   1.361       .  A
C7         C1639   1.486       .  S
N8            C9   1.368       .  A
C9           N10   1.357       .  A
C9         C1573   1.487       .  S
N10          C11   1.352       .  A
C11          N12   1.354       .  A
C11        C1539   1.485       .  S
C13          N14   1.363       .  A
C13          N18   1.361       .  A
C13        C1517   1.475       .  S
N14          C15   1.361       .  A
C15          N16   1.357       .  A
C15        C1473   1.474       .  S
N16          C17   1.355       .  A
C17          N18   1.356       .  A
C17        C1495   1.487       .  S
C19          N20   1.362       .  A
C19          N24   1.366       .  A
C19        C1529   1.479       .  S
N20          C21   1.354       .  A
C21          N22   1.351       .  A
C21        C1429   1.478       .  S
N22          C23   1.356       .  A
C23          N24   1.364       .  A
C23        C1451   1.482       .  S
C25          N26   1.362       .  A
C25          N30   1.368       .  A
C25        C1407   1.480       .  S
N26          C27   1.355       .  A
C27          N28   1.351       .  A
C27        C1363   1.487       .  S
N28          C29   1.357       .  A
C29          N30   1.365       .  A
C29        C1385   1.483       .  S
C31          N32   1.359       .  A
C31          N36   1.367       .  A
C31        C1319   1.486       .  S
N32          C33   1.353       .  A
C33          N34   1.354       .  A
C33        C1353   1.484       .  S
N34          C35   1.361       .  A
C35          N36   1.368       .  A
C35        C1419   1.487       .  S
C37          N38   1.359       .  A
C37          N42   1.368       .  A
C37        C1253   1.488       .  S
N38          C39   1.352       .  A
C39          N40   1.355       .  A
C39        C1275   1.490       .  S
N40          C41   1.363       .  A
C41          N42   1.369       .  A
C41        C1297   1.491       .  S
C43          N44   1.366       .  A
C43          N48   1.368       .  A
C43        C1309   1.486       .  S
N44          C45   1.359       .  A
C45          N46   1.353       .  A
C45        C1221   1.489       .  S
N46          C47   1.356       .  A
C47          N48   1.364       .  A
C47        C1231   1.482       .  S
O49          C65   1.277       .  A
O49         Zn55   2.042       .  S
C50        C1287   1.490       .  S
C50          O66   1.276       .  A
C50          O63   1.272       .  A
O51          C64   1.280       .  A
O51         Cd58   2.110       .  S
O52          C70   1.272       .  A
O52         Cd61   2.041       .  S
O53          C67   1.277       .  A
O53         Cd57   2.085       .  S
O54          C65   1.274       .  A
O54         Cd57   2.062       .  S
Zn55         O66   2.047       .  S
Zn55         O68   2.002       .  S
Zn55         O60   1.953       .  S
O56          C67   1.274       .  A
O56         Cd61   2.055       .  S
Cd57         O59   2.068       .  S
Cd57         O60   1.998       .  S
Cd58         O62   2.118       .  S
Cd58         O71   2.124       .  S
Cd58         O60   2.038       .  S
O59          C69   1.275       .  A
O60         Cd61   1.987       .  S
Cd61         O63   2.067       .  S
O62          C69   1.280       .  A
C64        C1165   1.476       .  S
C64          O68   1.275       .  A
C65        C1143   1.482       .  S
C67        C1121   1.483       .  S
C69        C1561   1.484       .  S
C70        C1199   1.482       .  S
C70          O71   1.281       .  A
O72          C88   1.276       .  A
O72         Zn78   2.038       .  S
C73        C1341   1.483       .  S
C73          O89   1.274       .  A
C73          O86   1.273       .  A
O74          C87   1.278       .  A
O74         Cd81   2.097       .  S
O75          C93   1.273       .  A
O75         Cd84   2.064       .  S
O76          C90   1.275       .  A
O76         Cd80   2.070       .  S
O77          C88   1.274       .  A
O77         Cd80   2.063       .  S
Zn78         O89   2.026       .  S
Zn78         O91   1.996       .  S
Zn78         O83   1.945       .  S
O79          C90   1.275       .  A
O79         Cd84   2.063       .  S
Cd80         O82   2.059       .  S
Cd80         O83   1.995       .  S
Cd81         O85   2.088       .  S
Cd81         O94   2.096       .  S
Cd81         O83   2.023       .  S
O82          C92   1.274       .  A
O83         Cd84   1.994       .  S
Cd84         O86   2.063       .  S
O85          C92   1.276       .  A
C87        C1463   1.470       .  S
C87          O91   1.274       .  A
C88        C1055   1.487       .  S
C90        C1617   1.481       .  S
C92        C1099   1.468       .  S
C93        C1077   1.471       .  S
C93          O94   1.277       .  A
C95          N96   1.362       .  A
C95         N100   1.369       .  A
C95        C1033   1.491       .  S
N96          C97   1.355       .  A
C97          N98   1.353       .  A
C97        C1023   1.484   1_455  S
N98          C99   1.358       .  A
C99         N100   1.367       .  A
C99        C1001   1.488       .  S
C101        N102   1.369       .  A
C101        N106   1.364       .  A
C101       C1045   1.488       .  S
N102        C103   1.365       .  A
C103        N104   1.354       .  A
C103        C945   1.478       .  S
N104        C105   1.352       .  A
C105        N106   1.358       .  A
C105        C979   1.484       .  S
O107        C123   1.274       .  A
O107       Zn113   2.021       .  S
C108        C901   1.486       .  S
C108        O124   1.273       .  A
C108        O121   1.277       .  A
O109        C122   1.280       .  A
O109       Cd116   2.110       .  S
O110        C128   1.276       .  A
O110       Cd119   2.056       .  S
O111        C125   1.274       .  A
O111       Cd115   2.066       .  S
O112        C123   1.272       .  A
O112       Cd115   2.058       .  S
Zn113       O124   2.006       .  S
Zn113       O126   1.996       .  S
Zn113       O118   1.931       .  S
O114        C125   1.277       .  A
O114       Cd119   2.083       .  S
Cd115       O117   2.049       .  S
Cd115       O118   1.987       .  S
Cd116       O120   2.108       .  S
Cd116       O129   2.103       .  S
Cd116       O118   2.033       .  S
O117        C127   1.274       .  A
O118       Cd119   1.992       .  S
Cd119       O121   2.090       .  S
O120        C127   1.279       .  A
C122       C1243   1.487       .  S
C122        O126   1.274       .  A
C123       C1011   1.483       .  S
C125       C1507   1.486       .  S
C127        C923   1.478       .  S
C128       C1397   1.476       .  S
C128        O129   1.279       .  A
C130        N131   1.360       .  A
C130        N135   1.363       .  A
C130        C879   1.478       .  S
N131        C132   1.357       .  A
C132        N133   1.357       .  A
C132        C857   1.485       .  S
N133        C134   1.359       .  A
C134        N135   1.363       .  A
C134       C1187   1.475       .  S
C136        N137   1.356       .  A
C136        N141   1.366       .  A
C136        C835   1.485       .  S
N137        C138   1.351       .  A
C138        N139   1.354       .  A
C138        C813   1.484       .  S
N139        C140   1.363       .  A
C140        N141   1.369       .  A
C140        C891   1.485       .  S
O142        C158   1.274       .  A
O142       Zn148   2.033       .  S
C143        C869   1.487       .  S
C143        O159   1.275       .  A
C143        O156   1.277       .  A
O144        C157   1.279       .  A
O144       Cd151   2.106       .  S
O145        C163   1.276       .  A
O145       Cd154   2.077       .  S
O146        C160   1.275       .  A
O146       Cd150   2.068       .  S
O147        C158   1.276       .  A
O147       Cd150   2.084       .  S
Zn148       O159   2.024       .  S
Zn148       O161   1.999       .  S
Zn148       O153   1.943       .  S
O149        C160   1.276       .  A
O149       Cd154   2.080       .  S
Cd150       O152   2.054       .  S
Cd150       O153   1.998       .  S
Cd151       O155   2.106       .  S
Cd151       O164   2.116       .  S
Cd151       O153   2.033       .  S
O152        C162   1.275       .  A
O153       Cd154   2.007       .  S
Cd154       O156   2.083       .  S
O155        C162   1.279       .  A
C157        C747   1.489       .  S
C157        O161   1.275       .  A
C158       C1209   1.491       .  S
C160        C967   1.484       .  S
C162        C791   1.482       .  S
C163        C769   1.480       .  S
C163        O164   1.281       .  A
C165        N166   1.361       .  A
C165        N170   1.368       .  A
C165        C725   1.483       .  S
N166        C167   1.355       .  A
C167        N168   1.353       .  A
C167        C703   1.486       .  S
N168        C169   1.357       .  A
C169        N170   1.367       .  A
C169        C693   1.479       .  S
C171        N172   1.361       .  A
C171        N176   1.369       .  A
C171        C737   1.482       .  S
N172        C173   1.354       .  A
C173        N174   1.351       .  A
C173       C1133   1.485       .  S
N174        C175   1.357       .  A
C175        N176   1.367       .  A
C175        C759   1.485       .  S
C177        N178   1.360       .  A
C177        N182   1.365       .  A
C177        C659   1.481       .  S
N178        C179   1.354       .  A
C179        N180   1.353       .  A
C179        C637   1.480       .  S
N180        C181   1.357       .  A
C181        N182   1.364       .  A
C181       C1111   1.476       .  S
C183        N184   1.363       .  A
C183        N188   1.362       .  A
C183        C671   1.478       .  S
N184        C185   1.359       .  A
C185        N186   1.355       .  A
C185        C605   1.468       .  S
N186        C187   1.353       .  A
C187        N188   1.357       .  A
C187        C615   1.483       .  S
O189        C205   1.274       .  A
O189       Zn195   2.032       .  S
C190        C649   1.482       .  S
C190        O206   1.275       .  A
C190        O203   1.275       .  A
O191        C204   1.281       .  A
O191       Cd198   2.119       .  S
O192        C210   1.274       .  A
O192       Cd201   2.048       .  S
O193        C207   1.273       .  A
O193       Cd197   2.065       .  S
O194        C205   1.273       .  A
O194       Cd197   2.058       .  S
Zn195       O206   2.018       .  S
Zn195       O208   2.001       .  S
Zn195       O200   1.939       .  S
O196        C207   1.274       .  A
O196       Cd201   2.074       .  S
Cd197       O199   2.029       .  S
Cd197       O200   1.986       .  S
Cd198       O202   2.126       .  S
Cd198       O211   2.119       .  S
Cd198       O200   2.040       .  S
O199        C209   1.272       .  A
O200       Cd201   1.993       .  S
Cd201       O203   2.068       .  S
O202        C209   1.282       .  A
C204        C571   1.487       .  S
C204        O208   1.275       .  A
C205       C1551   1.480       .  S
C207        C715   1.484       .  S
C209        C549   1.481       .  S
C210        C847   1.480       .  S
C210        O211   1.281       .  A
C212        N213   1.360       .  A
C212        N217   1.367       .  A
C212        C527   1.489       .  S
N213        C214   1.355       .  A
C214        N215   1.355       .  A
C214        C483   1.484       .  S
N215        C216   1.359       .  A
C216        N217   1.367       .  A
C216        C517   1.481       .  S
C218        N219   1.365       .  A
C218        N223   1.361       .  A
C218        C539   1.485       .  S
N219        C220   1.364       .  A
C220        N221   1.359       .  A
C220        C583   1.478       .  S
N221        C222   1.357       .  A
C222        N223   1.357       .  A
C222       C1067   1.488       .  S
O224        C240   1.272       .  A
O224       Zn230   1.999       .  S
C225        C825   1.486       .  S
C225        O241   1.274       .  A
C225        O238   1.275       .  A
O226        C239   1.280       .  A
O226       Cd233   2.120       .  S
O227        C245   1.276       .  A
O227       Cd236   2.062       .  S
O228        C242   1.277       .  A
O228       Cd232   2.086       .  S
O229        C240   1.274       .  A
O229       Cd232   2.071       .  S
Zn230       O241   2.017       .  S
Zn230       O243   1.999       .  S
Zn230       O235   1.936       .  S
O231        C242   1.276       .  A
O231       Cd236   2.073       .  S
Cd232       O234   2.063       .  S
Cd232       O235   2.007       .  S
Cd233       O237   2.111       .  S
Cd233       O246   2.109       .  S
Cd233       O235   2.030       .  S
O234        C244   1.274       .  A
O235       Cd236   1.998       .  S
Cd236       O238   2.080       .  S
O237        C244   1.280       .  A
C239        C681   1.491       .  S
C239        O243   1.273       .  A
C240        C627   1.480       .  S
C242        C473   1.487       .  S
C244        C505   1.475       .  S
C245        C957   1.485       .  S
C245        O246   1.281       .  A
C247        N248   1.364       .  A
C247        N252   1.371       .  A
C247        C439   1.484       .  S
N248        C249   1.355       .  A
C249        N250   1.348       .  A
C249        C429   1.483       .  S
N250        C251   1.355       .  A
C251        N252   1.367       .  A
C251        C935   1.488       .  S
C253        N254   1.368       .  A
C253        N258   1.360       .  A
C253        C451   1.490       .  S
N254        C255   1.368       .  A
C255        N256   1.360       .  A
C255        C781   1.484       .  S
N256        C257   1.356       .  A
C257        N258   1.354       .  A
C257        C461   1.487       .  S
O259        C275   1.271       .  A
O259       Zn265   2.009       .  S
C260        C495   1.486       .  S
C260        O276   1.273       .  A
C260        O273   1.276       .  A
O261        C274   1.280       .  A
O261       Cd268   2.116       .  S
O262        C280   1.275       .  A
O262       Cd271   2.061       .  S
O263        C277   1.274       .  A
O263       Cd267   2.063       .  S
O264        C275   1.273       .  A
O264       Cd267   2.071       .  S
Zn265       O276   2.011       .  S
Zn265       O278   1.977       .  S
Zn265       O270   1.933       .  S
O266        C277   1.275       .  A
O266       Cd271   2.071       .  S
Cd267       O269   2.042       .  S
Cd267       O270   1.994       .  S
Cd268       O272   2.126       .  S
Cd268       O281   2.116       .  S
Cd268       O270   2.040       .  S
O269        C279   1.273       .  A
O270       Cd271   1.997       .  S
Cd271       O273   2.082       .  S
O272        C279   1.282       .  A
C274        C593   1.480       .  S
C274        O278   1.272       .  A
C275        C417   1.484       .  S
C277       C1441   1.482       .  S
C279        C989   1.480       .  S
C280       C1331   1.478       .  S
C280        O281   1.281       .  A
C282        N283   1.362       .  A
C282        N287   1.359       .  A
C282        C395   1.477       .  S
N283        C284   1.362       .  A
C284        N285   1.361       .  A
C284        C561   1.474       .  S
N285        C286   1.358       .  A
C286        N287   1.356       .  A
C286       C1155   1.486       .  S
C288        N289   1.360       .  A
C288        N293   1.363       .  A
C288        C407   1.481       .  S
N289        C290   1.356       .  A
C290        N291   1.356       .  A
C290        C373   1.486       .  S
N291        C292   1.358       .  A
C292        N293   1.363       .  A
C292       C1089   1.471       .  S
C294        N295   1.359       .  A
C294        N299   1.365       .  A
C294        C363   1.484       .  S
N295        C296   1.355       .  A
C296        N297   1.356       .  A
C296        C913   1.487       .  S
N297        C298   1.359       .  A
C298        N299   1.365       .  A
C298        C803   1.475       .  S
C300        N301   1.363       .  A
C300        N305   1.371       .  A
C300        C351   1.489       .  S
N301        C302   1.353       .  A
C302        N303   1.350       .  A
C302        C341   1.482       .  S
N303        C304   1.356       .  A
C304        N305   1.368       .  A
C304       C1177   1.488       .  S
O306        C322   1.276       .  A
O306       Zn312   2.032       .  S
C307        C385   1.479       .  S
C307        O323   1.274       .  A
C307        O320   1.275       .  A
O308        C321   1.278       .  A
O308       Cd315   2.101       .  S
O309        C327   1.275       .  A
O309       Cd318   2.061       .  S
O310        C324   1.274       .  A
O310       Cd314   2.078       .  S
O311        C322   1.275       .  A
O311       Cd314   2.070       .  S
Zn312       O323   2.014       .  S
Zn312       O325   1.995       .  S
Zn312       O317   1.934       .  S
O313        C324   1.274       .  A
O313       Cd318   2.063       .  S
Cd314       O316   2.049       .  S
Cd314       O317   1.993       .  S
Cd315       O319   2.101       .  S
Cd315       O328   2.103       .  S
Cd315       O317   2.029       .  S
O316        C326   1.275       .  A
O317       Cd318   1.990       .  S
Cd318       O320   2.072       .  S
O319        C326   1.279       .  A
C321       C1595   1.473       .  S
C321        O325   1.273       .  A
C322       C1375   1.486       .  S
C324        C329   1.485       .  S
C326       C1485   1.481       .  S
C327       C1265   1.477       .  S
C327        O328   1.278       .  A
C329        C330   1.401       .  A
C329        C334   1.405       .  A
C330        C331   1.392       .  A
C330        H343   1.083       .  S
C331        C332   1.413       .  A
C331        H344   1.077       .  S
C332        C338   1.428       .  A
C332        C333   1.421       .  A
C333        C335   1.401       .  A
C333        C334   1.409       .  A
C334        H345   1.084       .  S
C335        C336   1.394       .  A
C335        H346   1.084       .  S
C336        C337   1.401       .  A
C336        H347   1.084       .  S
C337        C338   1.423       .  A
C337        C342   1.410       .  A
C338        C339   1.412       .  A
C339        C340   1.391       .  A
C339        H348   1.077       .  S
C340        C341   1.400       .  A
C340        H349   1.083       .  S
C341        C342   1.404       .  A
C342        H350   1.084       .  S
C351        C352   1.402       .  A
C351        C356   1.402       .  A
C352        C353   1.407       .  A
C352        H365   1.083       .  S
C353        C354   1.419       .  A
C353        H366   1.078       .  S
C354        C360   1.436       .  A
C354        C355   1.422       .  A
C355        C357   1.398       .  A
C355        C356   1.401       .  A
C356        H367   1.084       .  S
C357        C358   1.386       .  A
C357        H368   1.084       .  S
C358        C359   1.398       .  A
C358        H369   1.084       .  S
C359        C360   1.423       .  A
C359        C364   1.401       .  A
C360        C361   1.418       .  A
C361        C362   1.406       .  A
C361        H370   1.078       .  S
C362        C363   1.402       .  A
C362        H371   1.083       .  S
C363        C364   1.400       .  A
C364        H372   1.085       .  S
C373        C374   1.402       .  A
C373        C378   1.404       .  A
C374        C375   1.396       .  A
C374        H387   1.083       .  S
C375        C376   1.415       .  A
C375        H388   1.076       .  S
C376        C382   1.430       .  A
C376        C377   1.422       .  A
C377        C379   1.400       .  A
C377        C378   1.406       .  A
C378        H389   1.084       .  S
C379        C380   1.390       .  A
C379        H390   1.084       .  S
C380        C381   1.399       .  A
C380        H391   1.084       .  S
C381        C382   1.423       .  A
C381        C386   1.406       .  A
C382        C383   1.415       .  A
C383        C384   1.396       .  A
C383        H392   1.076       .  S
C384        C385   1.400       .  A
C384        H393   1.084       .  S
C385        C386   1.401       .  A
C386        H394   1.084       .  S
C395        C396   1.400       .  A
C395        C400   1.398       .  A
C396        C397   1.404       .  A
C396        H409   1.083       .  S
C397        C398   1.418       .  A
C397        H410   1.078       .  S
C398        C404   1.434       .  A
C398        C399   1.423       .  A
C399        C401   1.397       .  A
C399        C400   1.400       .  A
C400        H411   1.085       .  S
C401        C402   1.386       .  A
C401        H412   1.084       .  S
C402        C403   1.398       .  A
C402        H413   1.084       .  S
C403        C404   1.423       .  A
C403        C408   1.401       .  A
C404        C405   1.418       .  A
C405        C406   1.404       .  A
C405        H414   1.078       .  S
C406        C407   1.401       .  A
C406        H415   1.083       .  S
C407        C408   1.400       .  A
C408        H416   1.085       .  S
C417        C418   1.403       .  A
C417        C422   1.402       .  A
C418        C419   1.397       .  A
C418        H431   1.083       .  S
C419        C420   1.413       .  A
C419        H432   1.077       .  S
C420        C426   1.431       .  A
C420        C421   1.424       .  A
C421        C423   1.398       .  A
C421        C422   1.405       .  A
C422        H433   1.084       .  S
C423        C424   1.388       .  A
C423        H434   1.084       .  S
C424        C425   1.399   1_455  A
C424        H435   1.084   1_455  S
C425        C426   1.420   1_655  A
C425        C430   1.401       .  A
C426        C427   1.418       .  A
C427        C428   1.401   1_455  A
C427        H436   1.077       .  S
C428        C429   1.400       .  A
C428        H437   1.083       .  S
C429        C430   1.403       .  A
C430        H438   1.084       .  S
C439        C440   1.401       .  A
C439        C444   1.400       .  A
C440        C441   1.407       .  A
C440        H453   1.083       .  S
C441        C442   1.419       .  A
C441        H454   1.078       .  S
C442        C448   1.438       .  A
C442        C443   1.423       .  A
C443        C445   1.398       .  A
C443        C444   1.402       .  A
C444        H455   1.085       .  S
C445        C446   1.386       .  A
C445        H456   1.084       .  S
C446        C447   1.398   1_565  A
C446        H457   1.084   1_565  S
C447        C448   1.422   1_545  A
C447        C452   1.402       .  A
C448        C449   1.419   1_565  A
C449        C450   1.408       .  A
C449        H458   1.078       .  S
C450        C451   1.403       .  A
C450        H459   1.083       .  S
C451        C452   1.402       .  A
C452        H460   1.085       .  S
C461        C462   1.402       .  A
C461        C466   1.404       .  A
C462        C463   1.398       .  A
C462        H475   1.083       .  S
C463        C464   1.415   1_655  A
C463        H476   1.077       .  S
C464        C470   1.432       .  A
C464        C465   1.422       .  A
C465        C467   1.400       .  A
C465        C466   1.407   1_455  A
C466        H477   1.084       .  S
C467        C468   1.391       .  A
C467        H478   1.084       .  S
C468        C469   1.400       .  A
C468        H479   1.084       .  S
C469        C470   1.423       .  A
C469        C474   1.409       .  A
C470        C471   1.414       .  A
C471        C472   1.396       .  A
C471        H480   1.077       .  S
C472        C473   1.402       .  A
C472        H481   1.083       .  S
C473        C474   1.404       .  A
C474        H482   1.084       .  S
C483        C484   1.401       .  A
C483        C488   1.403   1_545  A
C484        C485   1.397   1_545  A
C484        H497   1.083       .  S
C485        C486   1.415       .  A
C485        H498   1.077       .  S
C486        C492   1.432       .  A
C486        C487   1.422       .  A
C487        C489   1.400       .  A
C487        C488   1.406       .  A
C488        H499   1.084       .  S
C489        C490   1.390       .  A
C489        H500   1.084       .  S
C490        C491   1.400       .  A
C490        H501   1.084       .  S
C491        C492   1.423       .  A
C491        C496   1.407       .  A
C492        C493   1.414       .  A
C493        C494   1.396       .  A
C493        H502   1.077       .  S
C494        C495   1.402       .  A
C494        H503   1.083       .  S
C495        C496   1.403       .  A
C496        H504   1.084       .  S
C505        C506   1.399       .  A
C505        C510   1.398       .  A
C506        C507   1.403       .  A
C506        H519   1.083       .  S
C507        C508   1.417       .  A
C507        H520   1.079       .  S
C508        C514   1.436       .  A
C508        C509   1.424       .  A
C509        C511   1.399       .  A
C509        C510   1.406       .  A
C510        H521   1.086       .  S
C511        C512   1.389       .  A
C511        H522   1.084       .  S
C512        C513   1.399       .  A
C512        H523   1.084       .  S
C513        C514   1.423       .  A
C513        C518   1.404       .  A
C514        C515   1.419       .  A
C515        C516   1.405       .  A
C515        H524   1.080       .  S
C516        C517   1.400       .  A
C516        H525   1.083       .  S
C517        C518   1.400       .  A
C518        H526   1.086       .  S
C527        C528   1.402       .  A
C527        C532   1.402       .  A
C528        C529   1.407       .  A
C528        H541   1.083       .  S
C529        C530   1.419       .  A
C529        H542   1.078       .  S
C530        C536   1.437       .  A
C530        C531   1.422       .  A
C531        C533   1.398       .  A
C531        C532   1.402       .  A
C532        H543   1.085       .  S
C533        C534   1.386       .  A
C533        H544   1.084       .  S
C534        C535   1.398       .  A
C534        H545   1.084       .  S
C535        C536   1.423       .  A
C535        C540   1.403       .  A
C536        C537   1.418       .  A
C537        C538   1.405       .  A
C537        H546   1.078       .  S
C538        C539   1.402       .  A
C538        H547   1.083       .  S
C539        C540   1.400       .  A
C540        H548   1.085       .  S
C549        C550   1.400       .  A
C549        C554   1.402       .  A
C550        C551   1.406       .  A
C550        H563   1.083       .  S
C551        C552   1.420       .  A
C551        H564   1.078       .  S
C552        C558   1.434       .  A
C552        C553   1.421       .  A
C553        C555   1.399       .  A
C553        C554   1.399       .  A
C554        H565   1.085       .  S
C555        C556   1.386       .  A
C555        H566   1.084       .  S
C556        C557   1.397       .  A
C556        H567   1.084       .  S
C557        C558   1.424       .  A
C557        C562   1.403       .  A
C558        C559   1.416       .  A
C559        C560   1.403       .  A
C559        H568   1.078       .  S
C560        C561   1.400       .  A
C560        H569   1.083       .  S
C561        C562   1.397       .  A
C562        H570   1.085       .  S
C571        C572   1.402       .  A
C571        C576   1.401       .  A
C572        C573   1.408       .  A
C572        H585   1.083       .  S
C573        C574   1.420       .  A
C573        H586   1.078       .  S
C574        C580   1.437       .  A
C574        C575   1.422       .  A
C575        C577   1.398       .  A
C575        C576   1.401       .  A
C576        H587   1.085       .  S
C577        C578   1.386       .  A
C577        H588   1.084       .  S
C578        C579   1.397       .  A
C578        H589   1.084       .  S
C579        C580   1.424       .  A
C579        C584   1.403       .  A
C580        C581   1.418       .  A
C581        C582   1.406       .  A
C581        H590   1.078       .  S
C582        C583   1.401       .  A
C582        H591   1.083       .  S
C583        C584   1.397       .  A
C584        H592   1.085       .  S
C593        C594   1.401       .  A
C593        C598   1.402       .  A
C594        C595   1.389       .  A
C594        H607   1.084       .  S
C595        C596   1.411       .  A
C595        H608   1.077       .  S
C596        C602   1.428       .  A
C596        C597   1.424       .  A
C597        C599   1.401       .  A
C597        C598   1.413       .  A
C598        H609   1.084       .  S
C599        C600   1.394       .  A
C599        H610   1.084       .  S
C600        C601   1.401       .  A
C600        H611   1.084       .  S
C601        C602   1.423       .  A
C601        C606   1.409       .  A
C602        C603   1.415       .  A
C603        C604   1.391       .  A
C603        H612   1.077       .  S
C604        C605   1.396       .  A
C604        H613   1.084       .  S
C605        C606   1.400       .  A
C606        H614   1.085       .  S
C615        C616   1.403       .  A
C615        C620   1.402       .  A
C616        C617   1.394       .  A
C616        H629   1.083       .  S
C617        C618   1.413   1_565  A
C617        H630   1.076       .  S
C618        C624   1.429       .  A
C618        C619   1.423       .  A
C619        C621   1.399       .  A
C619        C620   1.405   1_545  A
C620        H631   1.084       .  S
C621        C622   1.389       .  A
C621        H632   1.084       .  S
C622        C623   1.399       .  A
C622        H633   1.084       .  S
C623        C624   1.421       .  A
C623        C628   1.402       .  A
C624        C625   1.416       .  A
C625        C626   1.396       .  A
C625        H634   1.076       .  S
C626        C627   1.400       .  A
C626        H635   1.083       .  S
C627        C628   1.403       .  A
C628        H636   1.084       .  S
C637        C638   1.401       .  A
C637        C642   1.402       .  A
C638        C639   1.395       .  A
C638        H651   1.083       .  S
C639        C640   1.414   1_565  A
C639        H652   1.077       .  S
C640        C646   1.429       .  A
C640        C641   1.422       .  A
C641        C643   1.399       .  A
C641        C642   1.405   1_545  A
C642        H653   1.084       .  S
C643        C644   1.390       .  A
C643        H654   1.084       .  S
C644        C645   1.400       .  A
C644        H655   1.084       .  S
C645        C646   1.422       .  A
C645        C650   1.405       .  A
C646        C647   1.414       .  A
C647        C648   1.396       .  A
C647        H656   1.077       .  S
C648        C649   1.401       .  A
C648        H657   1.083       .  S
C649        C650   1.403       .  A
C650        H658   1.084       .  S
C659        C660   1.401       .  A
C659        C664   1.402       .  A
C660        C661   1.392       .  A
C660        H673   1.083       .  S
C661        C662   1.412       .  A
C661        H674   1.077       .  S
C662        C668   1.429   1_556  A
C662        C663   1.424       .  A
C663        C665   1.400       .  A
C663        C664   1.410       .  A
C664        H675   1.084       .  S
C665        C666   1.392   1_556  A
C665        H676   1.084       .  S
C666        C667   1.400       .  A
C666        H677   1.084       .  S
C667        C668   1.422       .  A
C667        C672   1.408       .  A
C668        C669   1.415       .  A
C669        C670   1.394       .  A
C669        H678   1.077       .  S
C670        C671   1.399       .  A
C670        H679   1.084       .  S
C671        C672   1.402       .  A
C672        H680   1.085       .  S
C681        C682   1.403       .  A
C681        C686   1.403       .  A
C682        C683   1.408       .  A
C682        H695   1.083       .  S
C683        C684   1.419       .  A
C683        H696   1.078       .  S
C684        C690   1.438       .  A
C684        C685   1.422       .  A
C685        C687   1.398       .  A
C685        C686   1.402       .  A
C686        H697   1.085       .  S
C687        C688   1.386       .  A
C687        H698   1.084       .  S
C688        C689   1.398       .  A
C688        H699   1.084       .  S
C689        C690   1.423       .  A
C689        C694   1.401       .  A
C690        C691   1.420       .  A
C691        C692   1.408       .  A
C691        H700   1.078       .  S
C692        C693   1.400       .  A
C692        H701   1.083       .  S
C693        C694   1.399       .  A
C694        H702   1.085       .  S
C703        C704   1.402   1_554  A
C703        C708   1.403       .  A
C704        C705   1.399       .  A
C704        H717   1.083       .  S
C705        C706   1.416       .  A
C705        H718   1.077       .  S
C706        C712   1.432       .  A
C706        C707   1.422       .  A
C707        C709   1.399       .  A
C707        C708   1.404   1_556  A
C708        H719   1.084       .  S
C709        C710   1.389       .  A
C709        H720   1.084       .  S
C710        C711   1.399       .  A
C710        H721   1.084       .  S
C711        C712   1.423       .  A
C711        C716   1.405       .  A
C712        C713   1.415       .  A
C713        C714   1.398       .  A
C713        H722   1.077       .  S
C714        C715   1.402       .  A
C714        H723   1.083       .  S
C715        C716   1.402       .  A
C716        H724   1.084       .  S
C725        C726   1.400       .  A
C725        C730   1.404       .  A
C726        C727   1.392       .  A
C726        H739   1.084       .  S
C727        C728   1.413       .  A
C727        H740   1.077       .  S
C728        C734   1.432       .  A
C728        C729   1.424       .  A
C729        C731   1.402       .  A
C729        C730   1.416       .  A
C730        H741   1.084       .  S
C731        C732   1.397       .  A
C731        H742   1.084       .  S
C732        C733   1.402       .  A
C732        H743   1.084       .  S
C733        C734   1.423       .  A
C733        C738   1.415       .  A
C734        C735   1.413       .  A
C735        C736   1.392       .  A
C735        H744   1.077       .  S
C736        C737   1.399       .  A
C736        H745   1.084       .  S
C737        C738   1.404       .  A
C738        H746   1.084       .  S
C747        C748   1.404       .  A
C747        C752   1.402       .  A
C748        C749   1.407       .  A
C748        H761   1.083       .  S
C749        C750   1.418       .  A
C749        H762   1.078       .  S
C750        C756   1.436       .  A
C750        C751   1.422       .  A
C751        C753   1.397       .  A
C751        C752   1.399       .  A
C752        H763   1.084       .  S
C753        C754   1.383       .  A
C753        H764   1.084       .  S
C754        C755   1.397       .  A
C754        H765   1.084       .  S
C755        C756   1.422       .  A
C755        C760   1.398       .  A
C756        C757   1.420       .  A
C757        C758   1.409       .  A
C757        H766   1.078       .  S
C758        C759   1.402       .  A
C758        H767   1.083       .  S
C759        C760   1.401       .  A
C760        H768   1.085       .  S
C769        C770   1.400       .  A
C769        C774   1.400       .  A
C770        C771   1.405       .  A
C770        H783   1.083       .  S
C771        C772   1.417       .  A
C771        H784   1.078       .  S
C772        C778   1.438       .  A
C772        C773   1.425       .  A
C773        C775   1.399       .  A
C773        C774   1.409       .  A
C774        H785   1.085       .  S
C775        C776   1.390       .  A
C775        H786   1.084       .  S
C776        C777   1.399       .  A
C776        H787   1.084       .  S
C777        C778   1.422       .  A
C777        C782   1.406       .  A
C778        C779   1.419       .  A
C779        C780   1.406       .  A
C779        H788   1.078       .  S
C780        C781   1.401       .  A
C780        H789   1.083       .  S
C781        C782   1.402       .  A
C782        H790   1.085       .  S
C791        C792   1.401       .  A
C791        C796   1.400       .  A
C792        C793   1.405       .  A
C792        H805   1.083       .  S
C793        C794   1.419       .  A
C793        H806   1.078       .  S
C794        C800   1.435       .  A
C794        C795   1.422       .  A
C795        C797   1.398       .  A
C795        C796   1.401       .  A
C796        H807   1.085       .  S
C797        C798   1.386       .  A
C797        H808   1.084       .  S
C798        C799   1.398       .  A
C798        H809   1.084       .  S
C799        C800   1.424       .  A
C799        C804   1.403       .  A
C800        C801   1.418       .  A
C801        C802   1.404       .  A
C801        H810   1.078       .  S
C802        C803   1.400       .  A
C802        H811   1.083       .  S
C803        C804   1.397       .  A
C804        H812   1.085       .  S
C813        C814   1.402       .  A
C813        C818   1.403       .  A
C814        C815   1.393       .  A
C814        H827   1.083       .  S
C815        C816   1.413   1_556  A
C815        H828   1.077   1_556  S
C816        C822   1.430       .  A
C816        C817   1.423       .  A
C817        C819   1.400       .  A
C817        C818   1.409   1_554  A
C818        H829   1.084       .  S
C819        C820   1.392       .  A
C819        H830   1.084       .  S
C820        C821   1.401       .  A
C820        H831   1.084       .  S
C821        C822   1.422       .  A
C821        C826   1.408       .  A
C822        C823   1.414       .  A
C823        C824   1.395       .  A
C823        H832   1.077       .  S
C824        C825   1.402       .  A
C824        H833   1.083       .  S
C825        C826   1.405       .  A
C826        H834   1.084       .  S
C835        C836   1.402       .  A
C835        C840   1.401       .  A
C836        C837   1.409       .  A
C836        H849   1.083       .  S
C837        C838   1.420       .  A
C837        H850   1.078       .  S
C838        C844   1.437       .  A
C838        C839   1.422       .  A
C839        C841   1.398       .  A
C839        C840   1.398       .  A
C840        H851   1.085       .  S
C841        C842   1.384       .  A
C841        H852   1.084       .  S
C842        C843   1.397       .  A
C842        H853   1.084       .  S
C843        C844   1.423       .  A
C843        C848   1.399       .  A
C844        C845   1.419       .  A
C845        C846   1.408       .  A
C845        H854   1.078       .  S
C846        C847   1.401       .  A
C846        H855   1.083       .  S
C847        C848   1.398       .  A
C848        H856   1.085       .  S
C857        C858   1.402       .  A
C857        C862   1.403       .  A
C858        C859   1.398   1_556  A
C858        H871   1.083       .  S
C859        C860   1.415       .  A
C859        H872   1.077       .  S
C860        C866   1.433       .  A
C860        C861   1.423       .  A
C861        C863   1.399       .  A
C861        C862   1.407   1_554  A
C862        H873   1.084       .  S
C863        C864   1.390       .  A
C863        H874   1.084   1_554  S
C864        C865   1.400       .  A
C864        H875   1.084       .  S
C865        C866   1.422       .  A
C865        C870   1.406       .  A
C866        C867   1.416       .  A
C867        C868   1.399       .  A
C867        H876   1.077       .  S
C868        C869   1.402       .  A
C868        H877   1.083       .  S
C869        C870   1.404       .  A
C870        H878   1.084       .  S
C879        C880   1.397       .  A
C879        C884   1.403       .  A
C880        C881   1.394       .  A
C880        H893   1.084       .  S
C881        C882   1.415       .  A
C881        H894   1.075       .  S
C882        C888   1.431       .  A
C882        C883   1.423       .  A
C883        C885   1.402       .  A
C883        C884   1.412       .  A
C884        H895   1.084       .  S
C885        C886   1.395       .  A
C885        H896   1.084       .  S
C886        C887   1.401   1_655  A
C886        H897   1.084   1_655  S
C887        C888   1.423   1_455  A
C887        C892   1.414       .  A
C888        C889   1.413       .  A
C889        C890   1.393   1_655  A
C889        H898   1.075       .  S
C890        C891   1.401       .  A
C890        H899   1.084       .  S
C891        C892   1.405       .  A
C892        H900   1.084       .  S
C901        C902   1.401       .  A
C901        C906   1.404       .  A
C902        C903   1.400       .  A
C902        H915   1.083       .  S
C903        C904   1.417       .  A
C903        H916   1.078       .  S
C904        C910   1.432       .  A
C904        C905   1.421       .  A
C905        C907   1.400       .  A
C905        C906   1.404       .  A
C906        H917   1.084       .  S
C907        C908   1.389       .  A
C907        H918   1.084       .  S
C908        C909   1.399       .  A
C908        H919   1.084       .  S
C909        C910   1.423       .  A
C909        C914   1.406       .  A
C910        C911   1.414       .  A
C911        C912   1.397       .  A
C911        H920   1.078       .  S
C912        C913   1.403       .  A
C912        H921   1.083       .  S
C913        C914   1.403       .  A
C914        H922   1.084       .  S
C923        C924   1.402       .  A
C923        C928   1.396       .  A
C924        C925   1.408       .  A
C924        H937   1.083       .  S
C925        C926   1.419       .  A
C925        H938   1.079       .  S
C926        C932   1.436       .  A
C926        C927   1.424       .  A
C927        C929   1.396       .  A
C927        C928   1.397       .  A
C928        H939   1.086       .  S
C929        C930   1.382       .  A
C929        H940   1.084       .  S
C930        C931   1.397       .  A
C930        H941   1.084       .  S
C931        C932   1.421       .  A
C931        C936   1.395       .  A
C932        C933   1.421       .  A
C933        C934   1.411       .  A
C933        H942   1.079       .  S
C934        C935   1.402       .  A
C934        H943   1.083       .  S
C935        C936   1.402       .  A
C936        H944   1.085       .  S
C945        C946   1.400       .  A
C945        C950   1.400       .  A
C946        C947   1.405       .  A
C946        H959   1.083       .  S
C947        C948   1.419       .  A
C947        H960   1.078       .  S
C948        C954   1.436       .  A
C948        C949   1.422       .  A
C949        C951   1.398       .  A
C949        C950   1.402       .  A
C950        H961   1.085       .  S
C951        C952   1.387       .  A
C951        H962   1.084       .  S
C952        C953   1.398       .  A
C952        H963   1.084       .  S
C953        C954   1.423       .  A
C953        C958   1.403       .  A
C954        C955   1.418       .  A
C955        C956   1.405       .  A
C955        H964   1.078       .  S
C956        C957   1.402       .  A
C956        H965   1.083       .  S
C957        C958   1.401       .  A
C958        H966   1.085       .  S
C967        C968   1.401       .  A
C967        C972   1.403       .  A
C968        C969   1.398       .  A
C968        H981   1.083       .  S
C969        C970   1.416       .  A
C969        H982   1.077       .  S
C970        C976   1.431       .  A
C970        C971   1.421       .  A
C971        C973   1.400       .  A
C971        C972   1.405       .  A
C972        H983   1.084       .  S
C973        C974   1.390       .  A
C973        H984   1.084       .  S
C974        C975   1.399       .  A
C974        H985   1.084       .  S
C975        C976   1.423       .  A
C975        C980   1.407       .  A
C976        C977   1.413       .  A
C977        C978   1.395   1_655  A
C977        H986   1.077       .  S
C978        C979   1.403       .  A
C978        H987   1.083       .  S
C979        C980   1.402   1_455  A
C980        H988   1.084       .  S
C989        C990   1.401       .  A
C989        C994   1.398       .  A
C990        C991   1.409       .  A
C990       H1003   1.083       .  S
C991        C992   1.420       .  A
C991       H1004   1.078       .  S
C992        C998   1.438       .  A
C992        C993   1.423       .  A
C993        C995   1.397       .  A
C993        C994   1.399       .  A
C994       H1005   1.086       .  S
C995        C996   1.384       .  A
C995       H1006   1.084       .  S
C996        C997   1.398       .  A
C996       H1007   1.084       .  S
C997        C998   1.422       .  A
C997       C1002   1.400       .  A
C998        C999   1.419       .  A
C999       C1000   1.409       .  A
C999       H1008   1.078       .  S
C1000      C1001   1.402       .  A
C1000      H1009   1.083       .  S
C1001      C1002   1.401       .  A
C1002      H1010   1.085       .  S
C1011      C1012   1.402       .  A
C1011      C1016   1.402       .  A
C1012      C1013   1.398       .  A
C1012      H1025   1.083       .  S
C1013      C1014   1.416       .  A
C1013      H1026   1.077       .  S
C1014      C1020   1.431       .  A
C1014      C1015   1.422       .  A
C1015      C1017   1.399       .  A
C1015      C1016   1.403       .  A
C1016      H1027   1.084       .  S
C1017      C1018   1.388       .  A
C1017      H1028   1.084       .  S
C1018      C1019   1.399       .  A
C1018      H1029   1.084       .  S
C1019      C1020   1.422       .  A
C1019      C1024   1.403       .  A
C1020      C1021   1.416       .  A
C1021      C1022   1.399       .  A
C1021      H1030   1.077       .  S
C1022      C1023   1.402       .  A
C1022      H1031   1.083       .  S
C1023      C1024   1.402       .  A
C1024      H1032   1.084   1_655  S
C1033      C1034   1.403       .  A
C1033      C1038   1.404       .  A
C1034      C1035   1.406       .  A
C1034      H1047   1.083       .  S
C1035      C1036   1.418       .  A
C1035      H1048   1.078       .  S
C1036      C1042   1.437       .  A
C1036      C1037   1.422       .  A
C1037      C1039   1.399       .  A
C1037      C1038   1.404       .  A
C1038      H1049   1.084       .  S
C1039      C1040   1.388       .  A
C1039      H1050   1.084       .  S
C1040      C1041   1.398       .  A
C1040      H1051   1.084       .  S
C1041      C1042   1.423       .  A
C1041      C1046   1.405       .  A
C1042      C1043   1.418       .  A
C1043      C1044   1.406       .  A
C1043      H1052   1.078       .  S
C1044      C1045   1.402       .  A
C1044      H1053   1.083       .  S
C1045      C1046   1.402       .  A
C1046      H1054   1.085       .  S
C1055      C1056   1.402       .  A
C1055      C1060   1.404       .  A
C1056      C1057   1.400       .  A
C1056      H1069   1.083       .  S
C1057      C1058   1.416       .  A
C1057      H1070   1.077       .  S
C1058      C1064   1.433       .  A
C1058      C1059   1.422       .  A
C1059      C1061   1.399       .  A
C1059      C1060   1.405       .  A
C1060      H1071   1.084       .  S
C1061      C1062   1.389       .  A
C1061      H1072   1.084       .  S
C1062      C1063   1.399       .  A
C1062      H1073   1.084       .  S
C1063      C1064   1.423       .  A
C1063      C1068   1.406       .  A
C1064      C1065   1.415       .  A
C1065      C1066   1.399       .  A
C1065      H1074   1.077       .  S
C1066      C1067   1.403   1_565  A
C1066      H1075   1.083       .  S
C1067      C1068   1.403   1_545  A
C1068      H1076   1.084   1_565  S
C1077      C1078   1.397       .  A
C1077      C1082   1.399       .  A
C1078      C1079   1.398       .  A
C1078      H1091   1.084       .  S
C1079      C1080   1.416       .  A
C1079      H1092   1.077       .  S
C1080      C1086   1.432       .  A
C1080      C1081   1.423       .  A
C1081      C1083   1.400       .  A
C1081      C1082   1.407       .  A
C1082      H1093   1.085       .  S
C1083      C1084   1.391       .  A
C1083      H1094   1.084       .  S
C1084      C1085   1.400       .  A
C1084      H1095   1.084       .  S
C1085      C1086   1.424       .  A
C1085      C1090   1.407       .  A
C1086      C1087   1.416       .  A
C1087      C1088   1.398       .  A
C1087      H1096   1.077       .  S
C1088      C1089   1.398       .  A
C1088      H1097   1.084       .  S
C1089      C1090   1.398       .  A
C1090      H1098   1.085       .  S
C1099      C1100   1.398       .  A
C1099      C1104   1.395       .  A
C1100      C1101   1.402       .  A
C1100      H1113   1.083       .  S
C1101      C1102   1.418       .  A
C1101      H1114   1.078       .  S
C1102      C1108   1.432       .  A
C1102      C1103   1.424       .  A
C1103      C1105   1.397       .  A
C1103      C1104   1.400       .  A
C1104      H1115   1.085       .  S
C1105      C1106   1.385       .  A
C1105      H1116   1.084       .  S
C1106      C1107   1.398       .  A
C1106      H1117   1.084       .  S
C1107      C1108   1.422       .  A
C1107      C1112   1.399       .  A
C1108      C1109   1.419       .  A
C1109      C1110   1.403       .  A
C1109      H1118   1.078       .  S
C1110      C1111   1.400       .  A
C1110      H1119   1.083       .  S
C1111      C1112   1.399       .  A
C1112      H1120   1.085       .  S
C1121      C1122   1.401       .  A
C1121      C1126   1.402       .  A
C1122      C1123   1.399       .  A
C1122      H1135   1.083       .  S
C1123      C1124   1.416       .  A
C1123      H1136   1.077       .  S
C1124      C1130   1.431       .  A
C1124      C1125   1.422       .  A
C1125      C1127   1.399       .  A
C1125      C1126   1.402       .  A
C1126      H1137   1.084       .  S
C1127      C1128   1.387       .  A
C1127      H1138   1.084       .  S
C1128      C1129   1.399       .  A
C1128      H1139   1.084       .  S
C1129      C1130   1.422       .  A
C1129      C1134   1.402   1_556  A
C1130      C1131   1.416       .  A
C1131      C1132   1.399       .  A
C1131      H1140   1.077       .  S
C1132      C1133   1.402   1_556  A
C1132      H1141   1.083       .  S
C1133      C1134   1.403       .  A
C1134      H1142   1.084       .  S
C1143      C1144   1.400       .  A
C1143      C1148   1.402       .  A
C1144      C1145   1.400       .  A
C1144      H1157   1.083       .  S
C1145      C1146   1.417       .  A
C1145      H1158   1.077       .  S
C1146      C1152   1.433       .  A
C1146      C1147   1.422       .  A
C1147      C1149   1.399       .  A
C1147      C1148   1.404       .  A
C1148      H1159   1.085       .  S
C1149      C1150   1.389       .  A
C1149      H1160   1.084       .  S
C1150      C1151   1.399       .  A
C1150      H1161   1.084       .  S
C1151      C1152   1.423       .  A
C1151      C1156   1.407       .  A
C1152      C1153   1.414       .  A
C1153      C1154   1.398       .  A
C1153      H1162   1.077       .  S
C1154      C1155   1.402       .  A
C1154      H1163   1.083       .  S
C1155      C1156   1.402       .  A
C1156      H1164   1.084       .  S
C1165      C1166   1.401       .  A
C1165      C1170   1.396       .  A
C1166      C1167   1.408       .  A
C1166      H1179   1.083       .  S
C1167      C1168   1.419       .  A
C1167      H1180   1.079       .  S
C1168      C1174   1.437       .  A
C1168      C1169   1.424       .  A
C1169      C1171   1.396       .  A
C1169      C1170   1.399       .  A
C1170      H1181   1.086       .  S
C1171      C1172   1.384       .  A
C1171      H1182   1.084       .  S
C1172      C1173   1.398       .  A
C1172      H1183   1.084       .  S
C1173      C1174   1.422       .  A
C1173      C1178   1.398       .  A
C1174      C1175   1.420       .  A
C1175      C1176   1.410       .  A
C1175      H1184   1.079       .  S
C1176      C1177   1.402       .  A
C1176      H1185   1.083       .  S
C1177      C1178   1.402       .  A
C1178      H1186   1.085       .  S
C1187      C1188   1.397       .  A
C1187      C1192   1.402       .  A
C1188      C1189   1.395       .  A
C1188      H1201   1.084       .  S
C1189      C1190   1.416       .  A
C1189      H1202   1.077       .  S
C1190      C1196   1.431       .  A
C1190      C1191   1.422       .  A
C1191      C1193   1.401       .  A
C1191      C1192   1.411       .  A
C1192      H1203   1.084       .  S
C1193      C1194   1.394       .  A
C1193      H1204   1.084       .  S
C1194      C1195   1.401       .  A
C1194      H1205   1.084       .  S
C1195      C1196   1.425       .  A
C1195      C1200   1.415       .  A
C1196      C1197   1.412       .  A
C1197      C1198   1.391       .  A
C1197      H1206   1.077       .  S
C1198      C1199   1.401       .  A
C1198      H1207   1.084       .  S
C1199      C1200   1.403       .  A
C1200      H1208   1.084       .  S
C1209      C1210   1.402       .  A
C1209      C1214   1.406       .  A
C1210      C1211   1.398       .  A
C1210      H1223   1.083       .  S
C1211      C1212   1.416       .  A
C1211      H1224   1.077       .  S
C1212      C1218   1.434       .  A
C1212      C1213   1.422       .  A
C1213      C1215   1.401       .  A
C1213      C1214   1.410       .  A
C1214      H1225   1.084       .  S
C1215      C1216   1.393       .  A
C1215      H1226   1.084       .  S
C1216      C1217   1.400       .  A
C1216      H1227   1.084       .  S
C1217      C1218   1.424       .  A
C1217      C1222   1.412       .  A
C1218      C1219   1.413       .  A
C1219      C1220   1.395       .  A
C1219      H1228   1.077       .  S
C1220      C1221   1.403       .  A
C1220      H1229   1.083       .  S
C1221      C1222   1.404       .  A
C1222      H1230   1.084       .  S
C1231      C1232   1.401       .  A
C1231      C1236   1.400       .  A
C1232      C1233   1.407       .  A
C1232      H1245   1.083       .  S
C1233      C1234   1.419       .  A
C1233      H1246   1.078       .  S
C1234      C1240   1.436       .  A
C1234      C1235   1.423       .  A
C1235      C1237   1.397       .  A
C1235      C1236   1.400       .  A
C1236      H1247   1.085       .  S
C1237      C1238   1.385       .  A
C1237      H1248   1.084       .  S
C1238      C1239   1.398       .  A
C1238      H1249   1.084       .  S
C1239      C1240   1.422       .  A
C1239      C1244   1.400       .  A
C1240      C1241   1.419       .  A
C1241      C1242   1.407       .  A
C1241      H1250   1.078       .  S
C1242      C1243   1.402       .  A
C1242      H1251   1.083       .  S
C1243      C1244   1.402       .  A
C1244      H1252   1.085       .  S
C1253      C1254   1.403       .  A
C1253      C1258   1.401       .  A
C1254      C1255   1.409       .  A
C1254      H1267   1.083       .  S
C1255      C1256   1.420       .  A
C1255      H1268   1.078       .  S
C1256      C1262   1.436       .  A
C1256      C1257   1.422       .  A
C1257      C1259   1.398       .  A
C1257      C1258   1.398       .  A
C1258      H1269   1.085       .  S
C1259      C1260   1.384       .  A
C1259      H1270   1.084       .  S
C1260      C1261   1.397       .  A
C1260      H1271   1.084       .  S
C1261      C1262   1.424       .  A
C1261      C1266   1.399       .  A
C1262      C1263   1.419       .  A
C1263      C1264   1.407       .  A
C1263      H1272   1.078       .  S
C1264      C1265   1.401       .  A
C1264      H1273   1.083       .  S
C1265      C1266   1.396       .  A
C1266      H1274   1.085       .  S
C1275      C1276   1.402       .  A
C1275      C1280   1.405       .  A
C1276      C1277   1.400       .  A
C1276      H1289   1.083       .  S
C1277      C1278   1.416       .  A
C1277      H1290   1.077       .  S
C1278      C1284   1.434       .  A
C1278      C1279   1.422       .  A
C1279      C1281   1.400       .  A
C1279      C1280   1.407       .  A
C1280      H1291   1.084       .  S
C1281      C1282   1.391       .  A
C1281      H1292   1.084       .  S
C1282      C1283   1.400       .  A
C1282      H1293   1.084       .  S
C1283      C1284   1.423       .  A
C1283      C1288   1.409       .  A
C1284      C1285   1.414       .  A
C1285      C1286   1.399       .  A
C1285      H1294   1.077       .  S
C1286      C1287   1.403       .  A
C1286      H1295   1.083       .  S
C1287      C1288   1.404       .  A
C1288      H1296   1.084       .  S
C1297      C1298   1.404       .  A
C1297      C1302   1.401       .  A
C1298      C1299   1.409       .  A
C1298      H1311   1.083       .  S
C1299      C1300   1.420       .  A
C1299      H1312   1.078       .  S
C1300      C1306   1.438   1_556  A
C1300      C1301   1.422       .  A
C1301      C1303   1.398       .  A
C1301      C1302   1.401       .  A
C1302      H1313   1.085       .  S
C1303      C1304   1.385   1_556  A
C1303      H1314   1.084       .  S
C1304      C1305   1.397       .  A
C1304      H1315   1.084       .  S
C1305      C1306   1.424       .  A
C1305      C1310   1.403       .  A
C1306      C1307   1.418       .  A
C1307      C1308   1.408       .  A
C1307      H1316   1.079       .  S
C1308      C1309   1.404       .  A
C1308      H1317   1.083       .  S
C1309      C1310   1.398       .  A
C1310      H1318   1.085       .  S
C1319      C1320   1.402       .  A
C1319      C1324   1.400       .  A
C1320      C1321   1.408       .  A
C1320      H1333   1.083       .  S
C1321      C1322   1.419       .  A
C1321      H1334   1.078       .  S
C1322      C1328   1.437       .  A
C1322      C1323   1.422       .  A
C1323      C1325   1.397       .  A
C1323      C1324   1.399       .  A
C1324      H1335   1.085       .  S
C1325      C1326   1.384       .  A
C1325      H1336   1.084       .  S
C1326      C1327   1.397       .  A
C1326      H1337   1.084       .  S
C1327      C1328   1.424       .  A
C1327      C1332   1.400       .  A
C1328      C1329   1.420       .  A
C1329      C1330   1.408       .  A
C1329      H1338   1.078       .  S
C1330      C1331   1.401       .  A
C1330      H1339   1.083       .  S
C1331      C1332   1.396       .  A
C1332      H1340   1.086       .  S
C1341      C1342   1.401       .  A
C1341      C1346   1.403       .  A
C1342      C1343   1.396       .  A
C1342      H1355   1.083       .  S
C1343      C1344   1.414       .  A
C1343      H1356   1.076       .  S
C1344      C1350   1.431       .  A
C1344      C1345   1.423       .  A
C1345      C1347   1.399       .  A
C1345      C1346   1.406       .  A
C1346      H1357   1.084       .  S
C1347      C1348   1.390       .  A
C1347      H1358   1.084       .  S
C1348      C1349   1.400       .  A
C1348      H1359   1.084       .  S
C1349      C1350   1.422       .  A
C1349      C1354   1.405       .  A
C1350      C1351   1.416       .  A
C1351      C1352   1.397       .  A
C1351      H1360   1.076       .  S
C1352      C1353   1.401       .  A
C1352      H1361   1.083       .  S
C1353      C1354   1.403       .  A
C1354      H1362   1.084       .  S
C1363      C1364   1.402       .  A
C1363      C1368   1.404       .  A
C1364      C1365   1.399       .  A
C1364      H1377   1.083       .  S
C1365      C1366   1.416       .  A
C1365      H1378   1.077       .  S
C1366      C1372   1.432       .  A
C1366      C1367   1.422       .  A
C1367      C1369   1.399       .  A
C1367      C1368   1.404       .  A
C1368      H1379   1.084       .  S
C1369      C1370   1.389       .  A
C1369      H1380   1.084       .  S
C1370      C1371   1.399       .  A
C1370      H1381   1.084       .  S
C1371      C1372   1.423       .  A
C1371      C1376   1.405       .  A
C1372      C1373   1.415       .  A
C1373      C1374   1.399       .  A
C1373      H1382   1.077       .  S
C1374      C1375   1.402       .  A
C1374      H1383   1.083       .  S
C1375      C1376   1.403       .  A
C1376      H1384   1.084       .  S
C1385      C1386   1.401       .  A
C1385      C1390   1.400       .  A
C1386      C1387   1.409       .  A
C1386      H1399   1.083       .  S
C1387      C1388   1.420       .  A
C1387      H1400   1.078       .  S
C1388      C1394   1.435       .  A
C1388      C1389   1.421       .  A
C1389      C1391   1.397       .  A
C1389      C1390   1.395       .  A
C1390      H1401   1.085       .  S
C1391      C1392   1.382       .  A
C1391      H1402   1.084       .  S
C1392      C1393   1.396       .  A
C1392      H1403   1.084       .  S
C1393      C1394   1.423       .  A
C1393      C1398   1.397       .  A
C1394      C1395   1.419       .  A
C1395      C1396   1.407       .  A
C1395      H1404   1.078       .  S
C1396      C1397   1.401       .  A
C1396      H1405   1.083       .  S
C1397      C1398   1.396       .  A
C1398      H1406   1.086       .  S
C1407      C1408   1.401       .  A
C1407      C1412   1.398       .  A
C1408      C1409   1.407       .  A
C1408      H1421   1.083       .  S
C1409      C1410   1.419       .  A
C1409      H1422   1.078       .  S
C1410      C1416   1.436       .  A
C1410      C1411   1.423       .  A
C1411      C1413   1.397       .  A
C1411      C1412   1.400       .  A
C1412      H1423   1.085       .  S
C1413      C1414   1.385       .  A
C1413      H1424   1.084       .  S
C1414      C1415   1.398       .  A
C1414      H1425   1.084       .  S
C1415      C1416   1.422       .  A
C1415      C1420   1.400       .  A
C1416      C1417   1.419       .  A
C1417      C1418   1.407       .  A
C1417      H1426   1.078       .  S
C1418      C1419   1.402       .  A
C1418      H1427   1.083       .  S
C1419      C1420   1.401       .  A
C1420      H1428   1.085       .  S
C1429      C1430   1.400       .  A
C1429      C1434   1.401       .  A
C1430      C1431   1.399       .  A
C1430      H1443   1.083       .  S
C1431      C1432   1.417       .  A
C1431      H1444   1.077       .  S
C1432      C1438   1.430       .  A
C1432      C1433   1.421       .  A
C1433      C1435   1.399       .  A
C1433      C1434   1.402       .  A
C1434      H1445   1.085       .  S
C1435      C1436   1.388       .  A
C1435      H1446   1.084       .  S
C1436      C1437   1.399       .  A
C1436      H1447   1.084       .  S
C1437      C1438   1.423       .  A
C1437      C1442   1.404       .  A
C1438      C1439   1.414       .  A
C1439      C1440   1.396       .  A
C1439      H1448   1.077       .  S
C1440      C1441   1.402       .  A
C1440      H1449   1.083       .  S
C1441      C1442   1.402       .  A
C1442      H1450   1.084       .  S
C1451      C1452   1.401       .  A
C1451      C1456   1.401       .  A
C1452      C1453   1.405       .  A
C1452      H1465   1.083       .  S
C1453      C1454   1.419       .  A
C1453      H1466   1.078       .  S
C1454      C1460   1.433       .  A
C1454      C1455   1.422       .  A
C1455      C1457   1.398       .  A
C1455      C1456   1.397       .  A
C1456      H1467   1.085       .  S
C1457      C1458   1.384       .  A
C1457      H1468   1.084       .  S
C1458      C1459   1.397       .  A
C1458      H1469   1.084       .  S
C1459      C1460   1.423       .  A
C1459      C1464   1.398       .  A
C1460      C1461   1.418       .  A
C1461      C1462   1.404       .  A
C1461      H1470   1.078       .  S
C1462      C1463   1.399       .  A
C1462      H1471   1.083       .  S
C1463      C1464   1.395       .  A
C1464      H1472   1.086       .  S
C1473      C1474   1.399       .  A
C1473      C1478   1.397       .  A
C1474      C1475   1.403       .  A
C1474      H1487   1.083       .  S
C1475      C1476   1.418       .  A
C1475      H1488   1.078       .  S
C1476      C1482   1.432       .  A
C1476      C1477   1.423       .  A
C1477      C1479   1.397       .  A
C1477      C1478   1.400       .  A
C1478      H1489   1.085       .  S
C1479      C1480   1.385       .  A
C1479      H1490   1.084       .  S
C1480      C1481   1.398       .  A
C1480      H1491   1.084       .  S
C1481      C1482   1.422       .  A
C1481      C1486   1.399       .  A
C1482      C1483   1.418       .  A
C1483      C1484   1.403       .  A
C1483      H1492   1.078       .  S
C1484      C1485   1.401       .  A
C1484      H1493   1.083       .  S
C1485      C1486   1.401       .  A
C1486      H1494   1.085       .  S
C1495      C1496   1.403       .  A
C1495      C1500   1.403       .  A
C1496      C1497   1.399       .  A
C1496      H1509   1.083       .  S
C1497      C1498   1.416       .  A
C1497      H1510   1.078       .  S
C1498      C1504   1.432       .  A
C1498      C1499   1.421       .  A
C1499      C1501   1.399       .  A
C1499      C1500   1.403       .  A
C1500      H1511   1.084       .  S
C1501      C1502   1.388       .  A
C1501      H1512   1.084       .  S
C1502      C1503   1.399       .  A
C1502      H1513   1.084       .  S
C1503      C1504   1.423       .  A
C1503      C1508   1.405       .  A
C1504      C1505   1.414       .  A
C1505      C1506   1.398       .  A
C1505      H1514   1.078       .  S
C1506      C1507   1.403       .  A
C1506      H1515   1.083       .  S
C1507      C1508   1.402       .  A
C1508      H1516   1.084       .  S
C1517      C1518   1.397       .  A
C1517      C1522   1.402       .  A
C1518      C1519   1.393       .  A
C1518      H1531   1.084       .  S
C1519      C1520   1.414       .  A
C1519      H1532   1.077       .  S
C1520      C1526   1.429       .  A
C1520      C1521   1.423       .  A
C1521      C1523   1.401       .  A
C1521      C1522   1.410       .  A
C1522      H1533   1.085       .  S
C1523      C1524   1.393       .  A
C1523      H1534   1.084       .  S
C1524      C1525   1.401   1_655  A
C1524      H1535   1.084   1_655  S
C1525      C1526   1.423   1_455  A
C1525      C1530   1.411       .  A
C1526      C1527   1.413   1_655  A
C1527      C1528   1.392       .  A
C1527      H1536   1.077   1_455  S
C1528      C1529   1.400       .  A
C1528      H1537   1.084       .  S
C1529      C1530   1.403       .  A
C1530      H1538   1.084       .  S
C1539      C1540   1.402       .  A
C1539      C1544   1.404       .  A
C1540      C1541   1.394       .  A
C1540      H1553   1.083       .  S
C1541      C1542   1.414       .  A
C1541      H1554   1.077       .  S
C1542      C1548   1.430       .  A
C1542      C1543   1.422       .  A
C1543      C1545   1.400       .  A
C1543      C1544   1.407       .  A
C1544      H1555   1.084       .  S
C1545      C1546   1.391       .  A
C1545      H1556   1.084       .  S
C1546      C1547   1.400       .  A
C1546      H1557   1.084       .  S
C1547      C1548   1.423       .  A
C1547      C1552   1.407       .  A
C1548      C1549   1.415       .  A
C1549      C1550   1.395       .  A
C1549      H1558   1.077       .  S
C1550      C1551   1.400       .  A
C1550      H1559   1.083       .  S
C1551      C1552   1.402       .  A
C1552      H1560   1.085       .  S
C1561      C1562   1.402       .  A
C1561      C1566   1.399       .  A
C1562      C1563   1.408       .  A
C1562      H1575   1.083       .  S
C1563      C1564   1.419       .  A
C1563      H1576   1.078       .  S
C1564      C1570   1.438       .  A
C1564      C1565   1.424       .  A
C1565      C1567   1.398       .  A
C1565      C1566   1.403       .  A
C1566      H1577   1.085       .  S
C1567      C1568   1.386       .  A
C1567      H1578   1.084       .  S
C1568      C1569   1.398       .  A
C1568      H1579   1.084       .  S
C1569      C1570   1.422       .  A
C1569      C1574   1.401       .  A
C1570      C1571   1.420       .  A
C1571      C1572   1.409       .  A
C1571      H1580   1.078       .  S
C1572      C1573   1.402       .  A
C1572      H1581   1.083       .  S
C1573      C1574   1.402       .  A
C1574      H1582   1.085       .  S
C1583      C1584   1.400       .  A
C1583      C1588   1.400       .  A
C1584      C1585   1.406       .  A
C1584      H1597   1.083       .  S
C1585      C1586   1.419       .  A
C1585      H1598   1.078       .  S
C1586      C1592   1.434       .  A
C1586      C1587   1.422       .  A
C1587      C1589   1.398       .  A
C1587      C1588   1.399       .  A
C1588      H1599   1.085       .  S
C1589      C1590   1.385       .  A
C1589      H1600   1.084       .  S
C1590      C1591   1.397       .  A
C1590      H1601   1.084       .  S
C1591      C1592   1.423       .  A
C1591      C1596   1.400       .  A
C1592      C1593   1.419       .  A
C1593      C1594   1.404       .  A
C1593      H1602   1.078       .  S
C1594      C1595   1.399       .  A
C1594      H1603   1.083       .  S
C1595      C1596   1.397       .  A
C1596      H1604   1.086       .  S
C1605      C1606   1.402       .  A
C1605      C1610   1.403       .  A
C1606      C1607   1.398       .  A
C1606      H1619   1.083       .  S
C1607      C1608   1.415       .  A
C1607      H1620   1.077       .  S
C1608      C1614   1.430       .  A
C1608      C1609   1.422       .  A
C1609      C1611   1.399       .  A
C1609      C1610   1.402       .  A
C1610      H1621   1.084       .  S
C1611      C1612   1.387       .  A
C1611      H1622   1.084       .  S
C1612      C1613   1.398       .  A
C1612      H1623   1.084       .  S
C1613      C1614   1.422       .  A
C1613      C1618   1.402       .  A
C1614      C1615   1.415       .  A
C1615      C1616   1.398       .  A
C1615      H1624   1.077       .  S
C1616      C1617   1.402       .  A
C1616      H1625   1.083       .  S
C1617      C1618   1.401       .  A
C1618      H1626   1.085       .  S
C1627      C1628   1.398       .  A
C1627      C1632   1.401       .  A
C1628      C1629   1.394       .  A
C1628      H1641   1.084       .  S
C1629      C1630   1.415       .  A
C1629      H1642   1.078       .  S
C1630      C1636   1.432       .  A
C1630      C1631   1.424       .  A
C1631      C1633   1.401       .  A
C1631      C1632   1.412       .  A
C1632      H1643   1.085       .  S
C1633      C1634   1.395   1_565  A
C1633      H1644   1.084       .  S
C1634      C1635   1.401       .  A
C1634      H1645   1.084       .  S
C1635      C1636   1.424   1_545  A
C1635      C1640   1.415       .  A
C1636      C1637   1.412   1_565  A
C1637      C1638   1.393       .  A
C1637      H1646   1.078   1_545  S
C1638      C1639   1.401       .  A
C1638      H1647   1.084       .  S
C1639      C1640   1.404       .  A
C1640      H1648   1.084       .  S
