geometry optimzed in LAMMPS
_audit_creation_date              2020-11-30 
_audit_creation_method            'lammps2cif' 
_symmetry_space_group_name_H-M    'P1' 
_symmetry_Int_Tables_number       1 
_symmetry_cell_setting            triclinic 
loop_ 
_symmetry_equiv_pos_as_xyz 
  x,y,z 
_cell_length_a                    43.80682779942931 
_cell_length_b                    30.381191689294955 
_cell_length_c                    36.294403334341574 
_cell_angle_alpha                 90.28109696954485 
_cell_angle_beta                  89.14449695467873 
_cell_angle_gamma                 90.49430862761336 
loop_ 
_atom_site_label 
_atom_site_type_symbol 
_atom_site_fract_x 
_atom_site_fract_y 
_atom_site_fract_z 
_atom_site_charge 
N1          N  0.33768813  0.13428037  0.67562679    -0.27470
N2          N  0.31593726  0.15414068  0.69499190    -0.35330
C3          C  0.29348003  0.16607264  0.67242456     0.00870
C4          C  0.30162543  0.15342101  0.63720284     0.06890
C5          C  0.32964533  0.13335232  0.64006991    -0.06210
H6          H  0.27220251  0.18080101  0.68130992     0.07560
H7          H  0.34253279  0.11737514  0.61821675     0.08760
Cu8        Cu  0.31450754  0.15862613  0.75140493     0.44170
Cu9        Cu  0.37600323  0.10525669  0.69791630     0.41990
Cu10       Cu  0.37228663  0.09610757  0.79534791     0.43880
N11         N  0.31370010  0.14460956  0.80661544    -0.34300
N12         N  0.33461374  0.12007846  0.82210710    -0.29110
C13         C  0.32648517  0.11222004  0.85712070    -0.05210
C14         C  0.29929469  0.13322553  0.86404560     0.07000
C15         C  0.29160206  0.15342929  0.83155053     0.00800
H16         H  0.33918999  0.09207767  0.87593000     0.08450
H17         H  0.27094277  0.17129589  0.82593450     0.07530
N18         N  0.40796696  0.07245066  0.76461758    -0.36310
N19         N  0.40988087  0.07562752  0.72838757    -0.28490
C20         C  0.43502271  0.05430547  0.71659575    -0.03730
C21         C  0.44938460  0.03751365  0.74704799     0.04880
C22         C  0.43147892  0.04906385  0.77693676     0.02970
H23         H  0.44144523  0.04916566  0.68803292     0.08080
H24         H  0.43458507  0.03967718  0.80535384     0.06910
N25         N  0.62913828  0.26857549  0.67378368    -0.27470
N26         N  0.63826132  0.23203695  0.68972296    -0.35330
C27         C  0.65460630  0.20845513  0.66512051     0.00870
C28         C  0.65584540  0.23127126  0.63213958     0.06890
C29         C  0.63972335  0.26945606  0.63898490    -0.06210
H30         H  0.66596773  0.17796055  0.67138892     0.07560
H31         H  0.63732445  0.29738117  0.62096917     0.08760
Cu32       Cu  0.63464879  0.22057312  0.74577671     0.44170
Cu33       Cu  0.60475909  0.31839228  0.69898137     0.41990
Cu34       Cu  0.60144359  0.31425663  0.79464110     0.43880
N35         N  0.64250802  0.23513016  0.80054921    -0.34860
N36         N  0.63188217  0.27091157  0.81674379    -0.29110
C37         C  0.64547087  0.27631714  0.84916116    -0.05210
C38         C  0.66570637  0.24204745  0.85445100     0.07000
C39         C  0.66267880  0.21608788  0.82295857     0.00800
H40         H  0.64123977  0.30434210  0.86689429     0.08450
H41         H  0.67409330  0.18577793  0.81614611     0.07530
N42         N  0.57716770  0.35986680  0.76574541    -0.36310
N43         N  0.57921612  0.36242607  0.72952522    -0.28490
C44         C  0.56096951  0.39466238  0.71785848    -0.03730
C45         C  0.54679399  0.41303548  0.74840491     0.04880
C46         C  0.55739389  0.39014176  0.77834194     0.02970
H47         H  0.55719673  0.40264439  0.68927843     0.08080
H48         H  0.55060446  0.39430523  0.80692633     0.06910
N49         N  0.11435017  0.08734486  0.18180038    -0.27470
N50         N  0.12403434  0.12057371  0.20222620    -0.35330
C51         C  0.14399154  0.14524024  0.18265013     0.00870
C52         C  0.14648968  0.12677198  0.14808121     0.06890
C53         C  0.12755860  0.09016699  0.14841241    -0.06210
H54         H  0.15614806  0.17373705  0.19308188     0.07560
H55         H  0.12419841  0.06672901  0.12624908     0.08760
Cu56       Cu  0.11486787  0.12481276  0.25723913     0.44170
Cu57       Cu  0.08636078  0.03722297  0.20114259     0.41990
Cu58       Cu  0.09051140  0.02068714  0.29834920     0.43880
N59         N  0.13064925  0.10133332  0.30568742    -0.34860
N60         N  0.12364511  0.06261077  0.32008986    -0.29110
C61         C  0.14285375  0.05491249  0.34790920    -0.05210
C62         C  0.16309685  0.09017434  0.35029177     0.07000
C63         C  0.15433108  0.11906622  0.32344147     0.00800
H64         H  0.14202338  0.02594990  0.36514556     0.08450
H65         H  0.16506988  0.15018128  0.31635515     0.07530
N66         N  0.06139385  0.48448455  0.26462549    -0.36310
N67         N  0.06048975  0.99022247  0.22861790    -0.28490
C68         C  0.04120753  0.46057509  0.21389545    -0.03730
C69         C  0.02879950  0.43512490  0.24203936     0.04880
C70         C  0.04239702  0.45113509  0.27382188     0.02970
H71         H  0.03769872  0.45674316  0.18464024     0.08080
H72         H  0.03919425  0.43881259  0.30154107     0.06910
N73         N  0.85228737  0.16289045  0.31291760    -0.27470
N74         N  0.83039016  0.13921270  0.29764755    -0.35330
C75         C  0.80802158  0.13225880  0.32288288     0.00870
C76         C  0.81640592  0.15310200  0.35519060     0.06890
C77         C  0.84461676  0.17172534  0.34799973    -0.06210
H78         H  0.78626651  0.11675614  0.31719738     0.07560
H79         H  0.85739163  0.19337073  0.36596076     0.08760
Cu80       Cu  0.82962647  0.12690579  0.24148258     0.44170
Cu81       Cu  0.88757351  0.19218615  0.28421659     0.41990
Cu82       Cu  0.88544592  0.19198011  0.18636529     0.43880
N83         N  0.83026619  0.13025382  0.18443614    -0.34860
N84         N  0.85024381  0.15346913  0.16466372    -0.29110
C85         C  0.84084937  0.15447779  0.12957816    -0.05210
C86         C  0.81358082  0.13138876  0.12715735     0.07000
C87         C  0.80766849  0.11627317  0.16243783     0.00800
H88         H  0.85121909  0.17475973  0.10831223     0.08450
H89         H  0.78691715  0.10034329  0.17218267     0.07530
N90         N  0.91555938  0.23161570  0.21611003    -0.36310
N91         N  0.91616989  0.23066000  0.25244250    -0.28490
C92         C  0.93630171  0.26063630  0.26464493    -0.03730
C93         C  0.94960351  0.28138952  0.23457185     0.04880
C94         C  0.93563285  0.26244850  0.20413672     0.02970
H95         H  0.93976528  0.26817885  0.29344393     0.08080
H96         H  0.93934927  0.27106327  0.17552100     0.06910
C97         C  0.37333651  0.45287182  0.07063155     0.02950
C98         C  0.37254682  0.42800630  0.03775453    -0.13200
C99         C  0.35527785  0.44224863  0.00786524     0.00450
C100        C  0.34020221  0.98281067  0.01049847    -0.11730
C101        C  0.34036075  0.00749076  0.04323771     0.02940
C102        C  0.35679260  0.99227155  0.07338203    -0.11150
H103        H  0.38314891  0.39589614  0.03667727     0.08530
H104        H  0.32576995  0.99312256  0.98814906     0.06060
H105        H  0.35589421  0.01021849  0.09925705     0.05910
C106        C  0.24450561  0.11794237  0.00752152     0.00380
C107        C  0.21489312  0.13025808  0.01514394     0.00380
C108        C  0.05348285  0.12766329  0.92006531     0.02950
C109        C  0.08535445  0.12107729  0.91895156    -0.13200
C110        C  0.10451113  0.14299269  0.94350756     0.00450
C111        C  0.09185339  0.17005168  0.97078692    -0.11730
C112        C  0.06026072  0.17611755  0.97400817     0.02940
C113        C  0.04096934  0.15542193  0.94808186    -0.11150
H114        H  0.09538919  0.09851558  0.89906091     0.08530
H115        H  0.10683015  0.18522402  0.99082886     0.06060
H116        H  0.01672213  0.16177134  0.94924186     0.05910
C117        C  0.71927532  0.19850962  0.99294845     0.00380
C118        C  0.74892157  0.19281514  0.00326121     0.00380
C119        C  0.54838000  0.18351647  0.07885408     0.02950
C120        C  0.53131154  0.16047265  0.05223822    -0.13200
C121        C  0.54540166  0.14728296  0.01923122     0.00450
C122        C  0.57585401  0.15932731  0.01226350    -0.11730
C123        C  0.59459365  0.17608282  0.04029506     0.02940
C124        C  0.58022341  0.18781210  0.07385477    -0.11150
H125        H  0.50737516  0.15308654  0.05715192     0.08530
H126        H  0.58524393  0.15181669  0.98525817     0.06060
H127        H  0.59334465  0.20043989  0.09631014     0.05910
C128        C  0.87436059  0.37265041  0.93423186     0.02950
C129        C  0.85656962  0.33385610  0.93559456    -0.13200
C130        C  0.84584751  0.31775257  0.96971588     0.00450
C131        C  0.85477317  0.33968494  0.00203276    -0.11730
C132        C  0.86714235  0.38215375  0.00043786     0.02940
C133        C  0.87833747  0.39787515  0.96653345    -0.11150
H134        H  0.85005297  0.31788560  0.91014389     0.08530
H135        H  0.84643152  0.32780911  0.02851238     0.06060
H136        H  0.88824228  0.43063525  0.96481224     0.05910
O137        O  0.45417797  0.38569256  0.20890008    -0.73130
O138        O  0.49755244  0.31624636  0.28495986    -0.74110
O139        O  0.49923681  0.31916174  0.20726906    -0.62730
O140        O  0.45178942  0.38220594  0.28791537    -0.71140
O141        O  0.41678806  0.32936178  0.28652897    -0.70690
O142        O  0.46226953  0.26874454  0.20483280    -0.61940
O143        O  0.46277845  0.26312327  0.28279807    -0.74450
O144        O  0.41728856  0.33519044  0.20805113    -0.73230
Cu145      Cu  0.47684635  0.35275309  0.24741496     1.04560
Cu146      Cu  0.43843909  0.29744450  0.24553606     1.04330
C147        C  0.42907706  0.37114261  0.19599852     0.93070
C148        C  0.48794175  0.27833911  0.29523555     0.92210
C149        C  0.48793926  0.28391406  0.19348738     0.84360
C150        C  0.42704518  0.36494490  0.30067668     0.90630
C151        C  0.37610889  0.44280555  0.43404880     0.02950
C152        C  0.35914033  0.98192093  0.43841354    -0.13200
C153        C  0.35300995  0.99934339  0.47404029     0.00450
C154        C  0.36754792  0.97897477  0.50363118    -0.11730
C155        C  0.37582670  0.43467428  0.50081798     0.02940
C156        C  0.38203611  0.41761709  0.46564334    -0.11150
H157        H  0.34982229  0.99714095  0.41420436     0.08530
H158        H  0.36788377  0.99419161  0.53040011     0.06060
H159        H  0.38984642  0.38398456  0.46296470     0.05910
C160        C  0.05640506  0.12862544  0.58257213     0.02950
C161        C  0.04182475  0.15677659  0.55739665    -0.13200
C162        C  0.05938492  0.17981746  0.53085604     0.00450
C163        C  0.09111553  0.17484331  0.53024413    -0.11730
C164        C  0.10571389  0.14686593  0.55434481     0.02940
C165        C  0.08833754  0.12343616  0.58045357    -0.11150
H166        H  0.01727774  0.16055784  0.55845460     0.08530
H167        H  0.10469143  0.19135795  0.50931298     0.06060
H168        H  0.09955233  0.10072392  0.59868772     0.05910
C169        C  0.25090510  0.11952355  0.49818791     0.00380
C170        C  0.22237620  0.11721996  0.48372371     0.00380
C171        C  0.72597709  0.18492835  0.50051984     0.00380
C172        C  0.75650006  0.19008953  0.49330365     0.00380
C173        C  0.56462699  0.19496232  0.40490637     0.02950
C174        C  0.59699141  0.19095395  0.40394107    -0.13200
C175        C  0.61315663  0.18196402  0.43631980     0.00450
C176        C  0.59665741  0.17496324  0.46907013    -0.11730
C177        C  0.56514483  0.16935612  0.46896674     0.02940
C178        C  0.54894353  0.18163352  0.43769062    -0.11150
H179        H  0.60957921  0.19300749  0.37824415     0.08530
H180        H  0.60871271  0.16728900  0.49413316     0.06060
H181        H  0.52431572  0.17976027  0.43910257     0.05910
C182        C  0.88317853  0.35745468  0.56726695     0.02950
C183        C  0.86676263  0.31742802  0.57020632    -0.13200
C184        C  0.85476929  0.29722967  0.53867271     0.00450
C185        C  0.86096055  0.31562733  0.50402444    -0.11730
C186        C  0.87280019  0.35860073  0.50097216     0.02940
C187        C  0.88554771  0.37834026  0.53253092    -0.11150
H188        H  0.86214587  0.30313527  0.59702449     0.08530
H189        H  0.85032140  0.30072450  0.48012662     0.06060
H190        H  0.89450866  0.41165696  0.53092181     0.05910
O191        O  0.96344403  0.04745061  0.79124966    -0.73130
O192        O  0.92274379  0.47866719  0.70895375    -0.74110
O193        O  0.91989044  0.47799660  0.78854620    -0.62730
O194        O  0.96684812  0.04877653  0.71226374    -0.71140
O195        O  0.00370784  0.49921096  0.71182265    -0.70690
O196        O  0.95755466  0.43001115  0.78952063    -0.61940
O197        O  0.96010163  0.43000458  0.70989261    -0.74450
O198        O  0.00144278  0.49959452  0.79069681    -0.73230
Cu199      Cu  0.94187184  0.01480897  0.75017004     1.04560
Cu200      Cu  0.98189178  0.46290262  0.75054225     1.04330
C201        C  0.98890694  0.03431202  0.80378717     0.93070
C202        C  0.93548953  0.44410868  0.69575801     0.92210
C203        C  0.93200663  0.44377250  0.80236333     0.84360
C204        C  0.99257050  0.03507071  0.69984688     0.90630
N205        N  0.27567471  0.31195632  0.31248933    -0.27470
N206        N  0.26481335  0.34839228  0.29832135    -0.35330
C207        C  0.24528089  0.36675620  0.32279456     0.00870
C208        C  0.24321113  0.33983447  0.35363592     0.06890
C209        C  0.26291637  0.30542251  0.34570296    -0.06210
H210        H  0.23429391  0.39796905  0.31852705     0.07560
H211        H  0.26825380  0.27766729  0.36292759     0.08760
Cu212      Cu  0.27479771  0.36689278  0.24472427     0.44170
Cu213      Cu  0.30920769  0.27392067  0.28852418     0.41990
Cu214      Cu  0.32559928  0.28934100  0.19445346     0.43880
N215        N  0.27684149  0.35959746  0.18803211    -0.34860
N216        N  0.29421083  0.33074253  0.17025231    -0.29110
C217        C  0.28500630  0.32778877  0.13519261    -0.05210
C218        C  0.26072412  0.35586267  0.13079021     0.07000
C219        C  0.25629349  0.37581364  0.16462988     0.00800
H220        H  0.29373373  0.30435462  0.11519423     0.08450
H221        H  0.23759718  0.39702870  0.17262709     0.07530
N222        N  0.34978392  0.24539259  0.22625894    -0.36310
N223        N  0.34347649  0.24017069  0.26162077    -0.28490
C224        C  0.36138133  0.20875678  0.27528017    -0.03730
C225        C  0.37948307  0.19238119  0.24689848     0.04880
C226        C  0.37185702  0.21697274  0.21626609     0.02970
H227        H  0.36101755  0.19861550  0.30379582     0.08080
H228        H  0.38095598  0.21344273  0.18854625     0.06910
N229        N  0.55350637  0.42088139  0.33120818    -0.27470
N230        N  0.57382002  0.39520893  0.31481228    -0.35330
C231        C  0.59517635  0.38429349  0.33930783     0.00870
C232        C  0.58774072  0.40362004  0.37275791     0.06890
C233        C  0.56137922  0.42688169  0.36648218    -0.06210
H234        H  0.61629879  0.36787480  0.33225120     0.07560
H235        H  0.55067287  0.45029737  0.38504074     0.08760
Cu236      Cu  0.57575730  0.38533224  0.25841720     0.44170
Cu237      Cu  0.52091089  0.45609646  0.30352582     0.41990
Cu238      Cu  0.52417508  0.45180047  0.20469944     0.43880
N239        N  0.57686775  0.38835474  0.20151134    -0.34860
N240        N  0.55740700  0.41125744  0.18194801    -0.29110
C241        C  0.56709326  0.41186490  0.14668035    -0.05210
C242        C  0.59409690  0.38877185  0.14390874     0.07000
C243        C  0.59970417  0.37455987  0.17926779     0.00800
H244        H  0.55746773  0.43249233  0.12564954     0.08450
H245        H  0.62041594  0.35949899  0.18880126     0.07530
N246        N  0.49747000  0.49627651  0.23406033    -0.36310
N247        N  0.49579779  0.49700378  0.27043974    -0.28490
C248        C  0.47719221  0.02966863  0.28135682    -0.03730
C249        C  0.46710734  0.05111600  0.25036823     0.04880
C250        C  0.48019337  0.02884621  0.22081443     0.02970
H251        H  0.47183506  0.03772201  0.30978613     0.08080
H252        H  0.47716799  0.03550064  0.19184704     0.06910
N253        N  0.05094568  0.37905846  0.82312360    -0.27470
N254        N  0.07301387  0.40281644  0.80780886    -0.35330
C255        C  0.09613090  0.40651237  0.83150861     0.00870
C256        C  0.08823889  0.38346556  0.86306842     0.06890
C257        C  0.05917400  0.36730830  0.85709213    -0.06210
H258        H  0.11773986  0.42258292  0.82540222     0.07560
H259        H  0.04523088  0.34745615  0.87549281     0.08760
Cu260      Cu  0.07283441  0.42117946  0.75339212     0.44170
Cu261      Cu  0.01340695  0.35665634  0.79524188     0.41990
Cu262      Cu  0.01184811  0.36977726  0.69889404     0.43880
N263        N  0.07369896  0.41539293  0.69695710    -0.34860
N264        N  0.05183980  0.39662425  0.67744693    -0.29110
C265        C  0.06251084  0.38903500  0.64321202    -0.05210
C266        C  0.09262456  0.40265947  0.64141606     0.07000
C267        C  0.09883896  0.42007810  0.67564360     0.00800
H268        H  0.05005737  0.37139301  0.62219084     0.08450
H269        H  0.12086574  0.43087081  0.68549451     0.07530
N270        N  0.97973144  0.33209134  0.72711085    -0.36310
N271        N  0.98058806  0.32762270  0.76319735    -0.28490
C272        C  0.96029069  0.29677070  0.77378713    -0.03730
C273        C  0.94558868  0.28099927  0.74287591     0.04880
C274        C  0.95869612  0.30402806  0.71363313     0.02970
H275        H  0.95844508  0.28404951  0.80152228     0.08080
H276        H  0.95466963  0.29877362  0.68459602     0.06910
N277        N  0.77977220  0.49847900  0.82496812    -0.27470
N278        N  0.76234068  0.46978458  0.80740306    -0.35330
C279        C  0.73975113  0.45587881  0.82990380     0.00870
C280        C  0.74277742  0.47750015  0.86299106     0.06890
C281        C  0.76846311  0.50393040  0.85930090    -0.06210
H282        H  0.72250839  0.43175795  0.82267968     0.07560
H283        H  0.77856977  0.52468441  0.88022980     0.08760
Cu284      Cu  0.76763708  0.45353304  0.75308764     0.44170
Cu285      Cu  0.81763685  0.02902187  0.80097301     0.41990
Cu286      Cu  0.82809335  0.00720011  0.70312665     0.43880
N287        N  0.77004425  0.45532272  0.69692755    -0.34860
N288        N  0.79320141  0.47268490  0.67835826    -0.29110
C289        C  0.78613941  0.47408946  0.64259366    -0.05210
C290        C  0.75636875  0.45895067  0.63865307     0.07000
C291        C  0.74725172  0.44642287  0.67376555     0.00800
H292        H  0.80156233  0.48668148  0.62172195     0.08450
H293        H  0.72485719  0.43498313  0.68247621     0.07530
N294        N  0.85156125  0.05543013  0.73161570    -0.36310
N295        N  0.84884716  0.06222744  0.76745379    -0.28490
C296        C  0.86487930  0.09852245  0.77636095    -0.03730
C297        C  0.87789213  0.11626405  0.74449110     0.04880
C298        C  0.86854035  0.08792304  0.71665866     0.02970
H299        H  0.86544743  0.11235466  0.80385608     0.08080
H300        H  0.87126927  0.09216288  0.68731447     0.06910
C301        C  0.35791546  0.37511746  0.59062694     0.02950
C302        C  0.37567090  0.39369648  0.56180563    -0.13200
C303        C  0.36160082  0.40544963  0.52889954     0.00450
C304        C  0.33043796  0.39663957  0.52477902    -0.11730
C305        C  0.31157711  0.38489832  0.55497008     0.02940
C306        C  0.32583933  0.37388287  0.58807167    -0.11150
H307        H  0.40006336  0.39813064  0.56471127     0.08530
H308        H  0.32045377  0.90357200  0.49830733     0.06060
H309        H  0.31250313  0.36461448  0.61209181     0.05910
C310        C  0.16229870  0.37394002  0.50966677     0.00380
C311        C  0.19235843  0.37567326  0.49933464     0.00380
C312        C  0.03189349  0.21457938  0.43777610     0.02950
C313        C  0.03150721  0.19163099  0.47159421    -0.13200
C314        C  0.04670077  0.20920305  0.50238014     0.00450
C315        C  0.05999822  0.25120096  0.49960616    -0.11730
C316        C  0.06295862  0.27215465  0.46549756     0.02940
C317        C  0.04827240  0.25444920  0.43477118    -0.11150
H318        H  0.02194311  0.15863805  0.47284862     0.08530
H319        H  0.07310508  0.26383071  0.52258471     0.06060
H320        H  0.05113394  0.27013260  0.40816392     0.05910
C321        C  0.03054896  0.21147849  0.06882009     0.02950
C322        C  0.03270874  0.18751418  0.03528196    -0.13200
C323        C  0.04925909  0.20488160  0.00488007     0.00450
C324        C  0.06259304  0.24694186  0.00822464    -0.11730
C325        C  0.06149040  0.27032112  0.04159961     0.02940
C326        C  0.04514375  0.25276591  0.07160034    -0.11150
H327        H  0.02363278  0.15425943  0.03387023     0.08530
H328        H  0.07661587  0.25966497  0.98573786     0.06060
H329        H  0.04491672  0.27035946  0.09766239     0.05910
C330        C  0.35452264  0.36092890  0.92641336     0.02950
C331        C  0.36586337  0.39029643  0.95361369    -0.13200
C332        C  0.34554201  0.41060160  0.97897795     0.00450
C333        C  0.31442540  0.39981651  0.97808473    -0.11730
C334        C  0.30327462  0.36978092  0.95248245     0.02940
C335        C  0.32301504  0.35114804  0.92633218    -0.11150
H336        H  0.39007812  0.39724521  0.95512423     0.08530
H337        H  0.29875991  0.91412217  0.99816716     0.06060
H338        H  0.31373839  0.32859076  0.90605829     0.05910
C339        C  0.18700102  0.35634556  0.00012850     0.00380
C340        C  0.15647045  0.36656741  0.99613253     0.00380
C341        C  0.69242275  0.45153317  0.00799378     0.00380
C342        C  0.66337512  0.45388300  0.02211807     0.00380
C343        C  0.53230290  0.10013273  0.92804977     0.02950
C344        C  0.52452018  0.12648269  0.95878531    -0.13200
C345        C  0.53227575  0.11371561  0.99428675     0.00450
C346        C  0.54314678  0.07110595  0.99934955    -0.11730
C347        C  0.55740492  0.04878782  0.96968291     0.02940
C348        C  0.55060270  0.06246591  0.93346026    -0.11150
H349        H  0.51524240  0.15906879  0.95480825     0.08530
H350        H  0.54829507  0.06128819  0.02727207     0.06060
H351        H  0.56122736  0.04650471  0.90989928     0.05910
C352        C  0.86247560  0.45616054  0.08565972     0.02950
C353        C  0.87549788  0.43128723  0.05648953    -0.13200
C354        C  0.85649139  0.41290729  0.02951021     0.00450
C355        C  0.82494336  0.41987953  0.03190363    -0.11730
C356        C  0.81197751  0.44346916  0.06110389     0.02940
C357        C  0.83070991  0.46209180  0.08775523    -0.11150
H358        H  0.89984939  0.42552288  0.05537288     0.08530
H359        H  0.81017953  0.40631932  0.01087666     0.06060
H360        H  0.82064691  0.48134478  0.10997357     0.05910
O361        O  0.95123566  0.15010543  0.29542891    -0.73130
O362        O  0.90998611  0.07812113  0.21715996    -0.74110
O363        O  0.90935519  0.07867946  0.29624275    -0.62730
O364        O  0.95180090  0.14875161  0.21539349    -0.71140
O365        O  0.99068710  0.10258429  0.21622467    -0.70690
O366        O  0.94767150  0.03162387  0.29549778    -0.61940
O367        O  0.94882643  0.03154987  0.21682659    -0.74450
O368        O  0.98957041  0.10294053  0.29540456    -0.73230
Cu369      Cu  0.92930820  0.11569662  0.25609460     1.04560
Cu370      Cu  0.97055009  0.06566734  0.25601579     1.04330
C371        C  0.97631259  0.13683146  0.30886921     0.93070
C372        C  0.92327948  0.04401259  0.20427986     0.92210
C373        C  0.92186522  0.04391878  0.30865072     0.84360
C374        C  0.97748303  0.13582755  0.20226048     0.90630
C375        C  0.86041361  0.44710628  0.42710420     0.02950
C376        C  0.87617826  0.41745509  0.45008986    -0.13200
C377        C  0.85966838  0.38683149  0.47166907     0.00450
C378        C  0.82792250  0.38576138  0.46894027    -0.11730
C379        C  0.81187422  0.41989572  0.45285519     0.02940
C380        C  0.82812519  0.44947508  0.43003169    -0.11150
H381        H  0.90088227  0.41757996  0.45044385     0.08530
H382        H  0.81506743  0.36042135  0.48335403     0.06060
H383        H  0.81583837  0.47376491  0.41448279     0.05910
C384        C  0.53468352  0.12672396  0.56038343     0.02950
C385        C  0.53758739  0.15434410  0.52933702    -0.13200
C386        C  0.55244308  0.13904772  0.49721743     0.00450
C387        C  0.56362781  0.09584767  0.49622854    -0.11730
C388        C  0.56282236  0.06948292  0.52761252     0.02940
C389        C  0.54780417  0.08465541  0.55953010    -0.11150
H390        H  0.52995951  0.18815205  0.53097163     0.08530
H391        H  0.57689982  0.08497864  0.47242945     0.06060
H392        H  0.54797089  0.06494018  0.58434844     0.05910
C393        C  0.65928371  0.45055112  0.49678925     0.00380
C394        C  0.68923958  0.44302852  0.50561655     0.00380
O395        O  0.45373824  0.17479151  0.70957186    -0.73130
O396        O  0.41086494  0.23479799  0.79506327    -0.74110
O397        O  0.40816388  0.24026156  0.71639785    -0.62730
O398        O  0.45705943  0.16924758  0.78861237    -0.71140
O399        O  0.49241147  0.22153945  0.78784547    -0.70690
O400        O  0.44347215  0.29279477  0.71706474    -0.61940
O401        O  0.44643993  0.28672878  0.79560743    -0.74450
O402        O  0.48893615  0.22741660  0.70923750    -0.73230
Cu403      Cu  0.43124653  0.20291319  0.75245053     1.04560
Cu404      Cu  0.46905804  0.25880241  0.75248716     1.04330
C405        C  0.47761810  0.19234056  0.69505812     0.93070
C406        C  0.42183539  0.27009942  0.80911682     0.92210
C407        C  0.41836394  0.27737424  0.70481473     0.84360
C408        C  0.48241504  0.18482785  0.80029075     0.90630
C409        C  0.49025937  0.13136865  0.60343228    -0.09340
C410        C  0.52051626  0.14295845  0.59506454     0.06860
C411        C  0.53702701  0.16856830  0.62038625    -0.03110
C412        C  0.52283014  0.18356025  0.65290528    -0.07560
C413        C  0.49213765  0.17294565  0.66125372     0.05970
C414        C  0.47596067  0.14596039  0.63600246    -0.02580
Br415      Br  0.43392927  0.12933044  0.64228260    -0.02280
H416        H  0.47754210  0.11117028  0.58421584     0.09880
H417        H  0.53597087  0.20361489  0.67178243     0.07900
Br418      Br  0.57921550  0.18290825  0.61196823    -0.02700
C419        C  0.61381531  0.04343319  0.54341266    -0.09340
C420        C  0.58514667  0.03348286  0.52950179     0.06860
C421        C  0.57962051  0.49123140  0.51565738    -0.03110
C422        C  0.60358315  0.46105284  0.51315843    -0.07560
C423        C  0.63431869  0.47295429  0.52117344     0.05970
C424        C  0.63773198  0.51321815  0.54168069    -0.02580
Br425      Br  0.66443317  0.52442573  0.58214448    -0.02280
H426        H  0.61721897  0.07489692  0.55712929     0.09880
H427        H  0.59830412  0.42932009  0.50121122     0.07900
Br428      Br  0.54051376  0.47474655  0.49680783    -0.02700
C429        C  0.75660630  0.43369365  0.43642812    -0.09340
C430        C  0.77864718  0.42353013  0.46255234     0.06860
C431        C  0.76820615  0.41023477  0.49762155    -0.03110
C432        C  0.73749917  0.40104903  0.50363299    -0.07560
C433        C  0.71493973  0.42112493  0.48211291     0.05970
C434        C  0.72506536  0.43332537  0.44572976    -0.02580
Br435      Br  0.70042316  0.42976230  0.40287256    -0.02280
H436        H  0.76384510  0.44008924  0.40827394     0.09880
H437        H  0.73153448  0.38703806  0.53007039     0.07900
Br438      Br  0.79357629  0.41251528  0.54066454    -0.02700
C439        C  0.88834333  0.04113624  0.36503693    -0.09340
C440        C  0.90668263  0.01858798  0.33907108     0.06860
C441        C  0.91059745  0.47269676  0.34350339    -0.03110
C442        C  0.89589993  0.45064508  0.37275719    -0.07560
C443        C  0.87734619  0.47311458  0.39841696     0.05970
C444        C  0.87415210  0.51906661  0.39466516    -0.02580
Br445      Br  0.85270689  0.05382109  0.43077042    -0.02280
H446        H  0.88558586  0.07645420  0.36281595     0.09880
H447        H  0.89846269  0.41529910  0.37501394     0.07900
Br448      Br  0.93426788  0.43731571  0.30977138    -0.02700
C449        C  0.91447553  0.03370626  0.13772038    -0.09340
C450        C  0.90935505  0.01943754  0.17398671     0.06860
C451        C  0.89053195  0.48265765  0.18074493    -0.03110
C452        C  0.87662164  0.46100642  0.15130728    -0.07560
C453        C  0.88125434  0.47561190  0.11498453     0.05970
C454        C  0.90051064  0.51211576  0.10819696    -0.02580
Br455      Br  0.90640632  0.03568587  0.05964020    -0.02280
H456        H  0.92884644  0.06228783  0.13246098     0.09880
H457        H  0.86140474  0.43342340  0.15682450     0.07900
Br458      Br  0.88211465  0.46234945  0.22980706    -0.02700
C459        C  0.53372312  0.16042273  0.88194267    -0.09340
C460        C  0.52491487  0.11716073  0.89079325     0.06860
C461        C  0.50498394  0.09459198  0.86698775    -0.03110
C462        C  0.49258263  0.11648103  0.83668099    -0.07560
C463        C  0.49959441  0.16102500  0.82935354     0.05970
C464        C  0.52130040  0.18253469  0.85200300    -0.02580
Br465      Br  0.53318131  0.24335816  0.84687443    -0.02280
H466        H  0.54914947  0.17814972  0.89990057     0.09880
H467        H  0.47648298  0.09895135  0.81955793     0.07900
Br468      Br  0.49187407  0.03525879  0.87649378    -0.02700
C469        C  0.72874172  0.41726179  0.05356739    -0.09340
C470        C  0.71972181  0.45336880  0.03220288     0.06860
C471        C  0.73926315  0.49063720  0.03035406    -0.03110
C472        C  0.76873657  0.48880454  0.04382721    -0.07560
C473        C  0.77891769  0.45086292  0.06081602     0.05970
C474        C  0.75813815  0.41652465  0.06859190    -0.02580
Br475      Br  0.76995871  0.36901223  0.09960069    -0.02280
H476        H  0.71366105  0.38910730  0.05704971     0.09880
H477        H  0.78441303  0.51601932  0.03885176     0.07900
Br478      Br  0.72753708  0.54499227  0.00909293    -0.02700
C479        C  0.62005554  0.45981459  0.97587028    -0.09340
C480        C  0.63855506  0.47871242  0.00345176     0.06860
C481        C  0.63085378  0.52053300  0.01707216    -0.03110
C482        C  0.60491761  0.04146088  0.00507292    -0.07560
C483        C  0.58555239  0.02296473  0.97856317     0.05970
C484        C  0.59375122  0.48171783  0.96324244    -0.02580
Br485      Br  0.56861692  0.45229615  0.92794188    -0.02280
H486        H  0.62554526  0.42754912  0.96494940     0.09880
H487        H  0.59942039  0.07259861  0.01784068     0.07900
Br488      Br  0.65409985  0.55160894  0.05314240    -0.02700
C489        C  0.41131728  0.33753810  0.84735660    -0.09340
C490        C  0.40593591  0.29235264  0.84080125     0.06860
C491        C  0.38515372  0.26993639  0.86447711    -0.03110
C492        C  0.37020904  0.29264810  0.89303168    -0.07560
C493        C  0.37464167  0.33808366  0.89873857     0.05970
C494        C  0.39575590  0.36049790  0.87557156    -0.02580
Br495      Br  0.40244713  0.42294491  0.87867307    -0.02280
H496        H  0.42695429  0.35565651  0.82956574     0.09880
H497        H  0.35441353  0.27458486  0.91068931     0.07900
Br498      Br  0.37601548  0.20818764  0.86038716    -0.02700
C499        C  0.24935546  0.38545303  0.93886670    -0.09340
C500        C  0.27080620  0.35748016  0.95417958     0.06860
C501        C  0.26081961  0.31840855  0.97119645    -0.03110
C502        C  0.22949396  0.31066176  0.97614955    -0.07560
C503        C  0.20830503  0.34394749  0.96827221     0.05970
C504        C  0.21819174  0.37591686  0.94238288    -0.02580
Br505      Br  0.19887755  0.37901980  0.89551876    -0.02280
H506        H  0.25702575  0.41189391  0.92092757     0.09880
H507        H  0.22234520  0.28227711  0.99204972     0.07900
Br508      Br  0.28898167  0.27850936  0.99300594    -0.02700
C509        C  0.97254783  0.16593754  0.13874910    -0.09340
C510        C  0.99111039  0.15761745  0.16922014     0.06860
C511        C  0.02256167  0.16747251  0.16637309    -0.03110
C512        C  0.03489956  0.18464243  0.13350164    -0.07560
C513        C  0.01651098  0.19180977  0.10267556     0.05970
C514        C  0.98499980  0.18253925  0.10565288    -0.02580
Br515      Br  0.95796374  0.19342959  0.06569939    -0.02280
H516        H  0.94833944  0.15852512  0.14038567     0.09880
H517        H  0.05904238  0.19249604  0.13200360     0.07900
Br518      Br  0.04931975  0.16037160  0.20723754    -0.02700
C519        C  0.13407554  0.33357602  0.05539722    -0.09340
C520        C  0.13178428  0.36422306  0.02661425     0.06860
C521        C  0.10134151  0.37657909  0.01849059    -0.03110
C522        C  0.07718549  0.34698215  0.02530631    -0.07560
C523        C  0.08210860  0.30883280  0.04574198     0.05970
C524        C  0.10981218  0.30527346  0.06447292    -0.02580
Br525      Br  0.11687945  0.26059668  0.10034720    -0.02280
H526        H  0.15427132  0.32998485  0.07061625     0.09880
H527        H  0.05496425  0.35306662  0.01381330     0.07900
Br528      Br  0.09130134  0.43312149  0.99913523    -0.02700
C529        C  0.02178417  0.16174282  0.34345032    -0.09340
C530        C  0.98989185  0.15951569  0.34099692     0.06860
C531        C  0.97191091  0.17531999  0.37085134    -0.03110
C532        C  0.98601475  0.19277912  0.40219438    -0.07560
C533        C  0.01789952  0.19500841  0.40448631     0.05970
C534        C  0.03580769  0.17935637  0.37463748    -0.02580
Br535      Br  0.07947722  0.17888545  0.37541978    -0.02280
H536        H  0.03594870  0.14926277  0.32107257     0.09880
H537        H  0.97202052  0.20450826  0.42500358     0.07900
Br538      Br  0.92818964  0.17079455  0.37198551    -0.02700
C539        C  0.14285994  0.31182986  0.47112720    -0.09340
C540        C  0.13859696  0.35465504  0.48482286     0.06860
C541        C  0.10938365  0.37377853  0.48217593    -0.03110
C542        C  0.08438496  0.34783454  0.47151189    -0.07560
C543        C  0.08849545  0.30370260  0.46146804     0.05970
C544        C  0.11830499  0.28702393  0.45844125    -0.02580
Br545      Br  0.12613091  0.22797515  0.44250701    -0.02280
H546        H  0.16474804  0.29592546  0.47339228     0.09880
H547        H  0.06156740  0.36112788  0.47363513     0.07900
Br548      Br  0.10205931  0.43396132  0.49561479    -0.02700
C549        C  0.36986807  0.30592332  0.62212979    -0.09340
C550        C  0.37259127  0.35184711  0.62126142     0.06860
C551        C  0.38958871  0.37351566  0.64857756    -0.03110
C552        C  0.40393075  0.34886552  0.67593166    -0.07560
C553        C  0.40153269  0.30254447  0.67661263     0.05970
C554        C  0.38424642  0.28127119  0.64908257    -0.02580
Br555      Br  0.38143220  0.21869211  0.64407779    -0.02280
H556        H  0.35709521  0.28895428  0.60090852     0.09880
H557        H  0.41698647  0.36600719  0.69675909     0.07900
Br558      Br  0.39295014  0.43647703  0.65010916    -0.02700
C559        C  0.26717524  0.42201648  0.52744331    -0.09340
C560        C  0.27758054  0.38889873  0.55104681     0.06860
C561        C  0.25545937  0.35937693  0.56619994    -0.03110
C562        C  0.22500457  0.36118637  0.55423057    -0.07560
C563        C  0.21710835  0.38888398  0.52495752     0.05970
C564        C  0.23797538  0.42151293  0.51364732    -0.02580
Br565      Br  0.22981343  0.46265579  0.47520804    -0.02280
H566        H  0.28261660  0.44623403  0.51600940     0.09880
H567        H  0.20905795  0.33579486  0.56314368     0.07900
Br568      Br  0.26551534  0.30982120  0.59621982    -0.02700
C569        C  0.71235333  0.42906374  0.60390731    -0.09340
C570        C  0.73672978  0.45952848  0.60574100     0.06860
C571        C  0.74127444  0.48938722  0.57626786    -0.03110
C572        C  0.72323964  0.48603822  0.54513951    -0.07560
C573        C  0.69974136  0.45459955  0.54289617     0.05970
C574        C  0.69387421  0.42641557  0.57294592    -0.02580
Br575      Br  0.66436741  0.37945745  0.57044198    -0.02280
H576        H  0.70845025  0.40558428  0.62586143     0.09880
H577        H  0.72835010  0.50682997  0.52162484     0.07900
Br578      Br  0.77106578  0.53583959  0.57518422    -0.02700
C579        C  0.69053120  0.48995614  0.94574219    -0.09340
C580        C  0.69987383  0.45421852  0.96749748     0.06860
C581        C  0.72053839  0.42361298  0.95150177    -0.03110
C582        C  0.73344093  0.43122322  0.91689368    -0.07560
C583        C  0.72571998  0.46830964  0.89694869     0.05970
C584        C  0.70302908  0.49660486  0.91039917    -0.02580
Br585      Br  0.68890443  0.54425489  0.88086011    -0.02280
H586        H  0.67510093  0.51439883  0.95665958     0.09880
H587        H  0.75029754  0.40859428  0.90583287     0.07900
Br588      Br  0.73317010  0.37069971  0.97485451    -0.02700
C589        C  0.12769228  0.33268150  0.94485265    -0.09340
C590        C  0.14377978  0.36926935  0.95846397     0.06860
C591        C  0.14214723  0.40963529  0.93959696    -0.03110
C592        C  0.12443656  0.41298202  0.90821738    -0.07560
C593        C  0.10746605  0.37698513  0.89545325     0.05970
C594        C  0.10943384  0.33620701  0.91376840    -0.02580
Br595      Br  0.08821676  0.28409437  0.89781630    -0.02280
H596        H  0.12824132  0.30176393  0.95961163     0.09880
H597        H  0.12325335  0.94441247  0.89429904     0.07900
Br598      Br  0.16329414  0.96154911  0.95489212    -0.02700
C599        C  0.13354701  0.42735765  0.59855619    -0.09340
C600        C  0.11484979  0.39323173  0.61183968     0.06860
C601        C  0.11709840  0.35106559  0.59585900    -0.03110
C602        C  0.13557096  0.34496938  0.56479520    -0.07560
C603        C  0.15170733  0.38025612  0.54863716     0.05970
C604        C  0.15189966  0.42132766  0.56712539    -0.02580
Br605      Br  0.17382055  0.97179031  0.54988496    -0.02280
H606        H  0.13253410  0.45959920  0.61145309     0.09880
H607        H  0.13575469  0.31289617  0.55164531     0.07900
Br608      Br  0.09564856  0.30042490  0.61488669    -0.02700
C609        C  0.93064809  0.21042380  0.71281349    -0.09340
C610        C  0.92585116  0.24128206  0.74115727     0.06860
C611        C  0.90377593  0.23206291  0.76871019    -0.03110
C612        C  0.88831300  0.19166773  0.76862176    -0.07560
C613        C  0.89406559  0.15954167  0.74133943     0.05970
C614        C  0.91513356  0.16989960  0.71256046    -0.02580
Br615      Br  0.92578401  0.13035255  0.67303536    -0.02280
H616        H  0.94753454  0.21705238  0.69141271     0.09880
H617        H  0.87141594  0.18574488  0.79009387     0.07900
Br618      Br  0.89248096  0.27403642  0.80623279    -0.02700
C619        C  0.62156041  0.45541104  0.40499088    -0.09340
C620        C  0.60915106  0.41292685  0.40253291     0.06860
C621        C  0.61652466  0.38127761  0.42906494    -0.03110
C622        C  0.63683870  0.39221564  0.45715346    -0.07560
C623        C  0.64789488  0.43555298  0.46070824     0.05970
C624        C  0.64011039  0.46713686  0.43429115    -0.02580
Br625      Br  0.65624289  0.52575714  0.43597079    -0.02280
H626        H  0.61613452  0.47990068  0.38453011     0.09880
H627        H  0.64117193  0.36848798  0.47862421     0.07900
Br628      Br  0.59516521  0.32615398  0.43215901    -0.02700
C629        C  0.64195419  0.42316667  0.12143820    -0.09340
C630        C  0.61695472  0.39556035  0.11441991     0.06860
C631        C  0.61161092  0.38131428  0.07832475    -0.03110
C632        C  0.63018007  0.39687264  0.04957571    -0.07560
C633        C  0.65300461  0.42899447  0.05562728     0.05970
C634        C  0.65971659  0.44075264  0.09264564    -0.02580
Br635      Br  0.69018732  0.48256795  0.10789791    -0.02280
H636        H  0.64608323  0.43413819  0.14940288     0.09880
H637        H  0.62504881  0.38634770  0.02179629     0.07900
Br638      Br  0.57771193  0.34350878  0.06673685    -0.02700
C639        C  0.20681246  0.31867888  0.05649040    -0.09340
C640        C  0.20244767  0.35786393  0.03676646     0.06860
C641        C  0.21804021  0.39609377  0.04849978    -0.03110
C642        C  0.23639454  0.39534991  0.07966250    -0.07560
C643        C  0.23981115  0.35653715  0.09955026     0.05970
C644        C  0.22391506  0.31841400  0.08861827    -0.02580
Br645      Br  0.22244945  0.26676798  0.11859885    -0.02280
H646        H  0.19558422  0.28853640  0.04772218     0.09880
H647        H  0.24879694  0.42481434  0.08772665     0.07900
Br648      Br  0.21780475  0.44895699  0.02104469    -0.02700
C649        C  0.23916759  0.32654293  0.42063706    -0.09340
C650        C  0.22744807  0.34759220  0.38965934     0.06860
C651        C  0.20145945  0.37451730  0.39452289    -0.03110
C652        C  0.19014056  0.38322890  0.43017287    -0.07560
C653        C  0.20281439  0.36308064  0.46117513     0.05970
C654        C  0.22652253  0.33250072  0.45551868    -0.02580
Br655      Br  0.24161024  0.29422458  0.49277099    -0.02280
H656        H  0.25846181  0.30476592  0.41817370     0.09880
H657        H  0.17131426  0.40581830  0.43371158     0.07900
Br658      Br  0.17834418  0.39685207  0.35434844    -0.02700
C659        C  0.41821279  0.08444019  0.27021502    -0.09340
C660        C  0.44533061  0.08791173  0.24947150     0.06860
C661        C  0.45080061  0.12600648  0.22829910    -0.03110
C662        C  0.42909188  0.15953122  0.22792753    -0.07560
C663        C  0.40176191  0.15600251  0.24846432     0.05970
C664        C  0.39630411  0.11758954  0.26953766    -0.02580
Br665      Br  0.35848188  0.10566105  0.29514021    -0.02280
H666        H  0.41358776  0.05499140  0.28618684     0.09880
H667        H  0.43377672  0.18878077  0.21178676     0.07900
Br668      Br  0.48818688  0.13527343  0.20124108    -0.02700
C669        C  0.92737205  0.38744997  0.60214245    -0.09340
C670        C  0.89587433  0.37924538  0.60074797     0.06860
C671        C  0.87738259  0.39230928  0.63107825    -0.03110
C672        C  0.89051772  0.41342535  0.66167806    -0.07560
C673        C  0.92217783  0.42100546  0.66327510     0.05970
C674        C  0.94056025  0.40768982  0.63293201    -0.02580
Br675      Br  0.98359208  0.41902470  0.63047937    -0.02280
H676        H  0.94187369  0.37796097  0.57905125     0.09880
H677        H  0.87593313  0.42369932  0.68444397     0.07900
Br678      Br  0.83397574  0.38365198  0.63158949    -0.02700
C679        C  0.65636921  0.13730260  0.45743888    -0.09340
C680        C  0.64677097  0.17429390  0.43758924     0.06860
C681        C  0.66873726  0.20704943  0.42884379    -0.03110
C682        C  0.69784621  0.20517453  0.44422012    -0.07560
C683        C  0.70474257  0.17272735  0.47018794     0.05970
C684        C  0.68456327  0.13705928  0.47471902    -0.02580
Br685      Br  0.69187764  0.09208179  0.51001915    -0.02280
H686        H  0.64005030  0.11152191  0.46425834     0.09880
H687        H  0.71303845  0.23320570  0.44080747     0.07900
Br688      Br  0.65940993  0.25960566  0.40302556    -0.02700
C689        C  0.79932709  0.28475483  0.53771818    -0.09340
C690        C  0.82841855  0.26637206  0.54101392     0.06860
C691        C  0.83176059  0.22086736  0.53573934    -0.03110
C692        C  0.80671379  0.19532441  0.52448047    -0.07560
C693        C  0.77826514  0.21469875  0.51732368     0.05970
C694        C  0.77471090  0.25999687  0.52467544    -0.02580
Br695      Br  0.73976041  0.29230136  0.50944670    -0.02280
H696        H  0.79669261  0.31987558  0.54087452     0.09880
H697        H  0.81014125  0.16077136  0.51826315     0.07900
Br698      Br  0.87074653  0.19344288  0.53971763    -0.02700
C699        C  0.02592568  0.12810232  0.64111695    -0.09340
C700        C  0.03878180  0.10454493  0.61144599     0.06860
C701        C  0.03718277  0.05815950  0.61174139    -0.03110
C702        C  0.02243671  0.03633030  0.64097973    -0.07560
C703        C  0.00909475  0.05981292  0.67042228     0.05970
C704        C  0.01160085  0.10619208  0.67071256    -0.02580
Br705      Br  0.99929390  0.14082909  0.71263723    -0.02280
H706        H  0.02812290  0.16366403  0.64195634     0.09880
H707        H  0.02122569  0.00071950  0.64054366     0.07900
Br708      Br  0.05435363  0.02309631  0.57257576    -0.02700
C709        C  0.14281221  0.09739467  0.52594755    -0.09340
C710        C  0.13780009  0.13618382  0.54561159     0.06860
C711        C  0.16117599  0.16826219  0.54682231    -0.03110
C712        C  0.18873160  0.16157088  0.52750964    -0.07560
C713        C  0.19351917  0.12311620  0.50638965     0.05970
C714        C  0.16966617  0.09109864  0.50566877    -0.02580
Br715      Br  0.16943899  0.03949428  0.47528343    -0.02280
H716        H  0.12444227  0.07341469  0.52361411     0.09880
H717        H  0.20594147  0.18734297  0.52787926     0.07900
Br718      Br  0.15583118  0.22240120  0.57322755    -0.02700
C719        C  0.32083685  0.06357872  0.45298963    -0.09340
C720        C  0.32799734  0.03270011  0.48068925     0.06860
C721        C  0.30817370  0.03114960  0.51224419    -0.03110
C722        C  0.28125699  0.05479914  0.51272184    -0.07560
C723        C  0.27516592  0.08731096  0.48680600     0.05970
C724        C  0.29541198  0.09173630  0.45639142    -0.02580
Br725      Br  0.28988567  0.13512522  0.41891613    -0.02280
H726        H  0.33555863  0.06695831  0.42896253     0.09880
H727        H  0.26578979  0.04995797  0.53583840     0.07900
Br728      Br  0.31491899  0.00286930  0.55896934    -0.02700
C729        C  0.53787073  0.26553559  0.32397697    -0.09340
C730        C  0.50725053  0.25260113  0.32080268     0.06860
C731        C  0.49685212  0.21631716  0.34183472    -0.03110
C732        C  0.51651172  0.19631295  0.36698365    -0.07560
C733        C  0.54672404  0.21172123  0.37248903     0.05970
C734        C  0.55748861  0.24576382  0.34875343    -0.02580
Br735      Br  0.59791057  0.26984015  0.34710786    -0.02280
H736        H  0.54688060  0.29204092  0.30700829     0.09880
H737        H  0.50767464  0.16869315  0.38265863     0.07900
Br738      Br  0.45593051  0.19343669  0.33915621    -0.02700
C739        C  0.37853470  0.38158512  0.38799223    -0.09340
C740        C  0.38522933  0.42559078  0.39697031     0.06860
C741        C  0.40354079  0.45048591  0.37224395    -0.03110
C742        C  0.41602107  0.43052854  0.34054557    -0.07560
C743        C  0.41065511  0.38576452  0.33253096     0.05970
C744        C  0.39100768  0.36149443  0.35646592    -0.02580
Br745      Br  0.38205526  0.29978750  0.35037276    -0.02280
H746        H  0.36429392  0.36207953  0.40644812     0.09880
H747        H  0.43071077  0.44997408  0.32255739     0.07900
Br748      Br  0.41455882  0.01077394  0.38170756    -0.02700
C749        C  0.91865046  0.38002211  0.89184673    -0.09340
C750        C  0.88777091  0.38801837  0.89893859     0.06860
C751        C  0.87096187  0.41201187  0.87329603    -0.03110
C752        C  0.88544256  0.42843684  0.84137395    -0.07560
C753        C  0.91680143  0.42144964  0.83440652     0.05970
C754        C  0.93329053  0.39650149  0.86025592    -0.02580
Br755      Br  0.97637824  0.38688883  0.85710059    -0.02280
H756        H  0.93173635  0.36184015  0.91171746     0.09880
H757        H  0.87220477  0.44758189  0.82233610     0.07900
Br758      Br  0.82863562  0.42471844  0.88179236    -0.02700
C759        C  0.52852706  0.23243641  0.17329598    -0.09340
C760        C  0.50435166  0.26003938  0.16416958     0.06860
C761        C  0.49420467  0.26113442  0.12768485    -0.03110
C762        C  0.50850383  0.23525186  0.10072770    -0.07560
C763        C  0.53269084  0.20723967  0.10955304     0.05970
C764        C  0.54249362  0.20563916  0.14649599    -0.02580
Br765      Br  0.57269044  0.16493336  0.16282902    -0.02280
H766        H  0.53577132  0.23047165  0.20165895     0.09880
H767        H  0.50092733  0.23752343  0.07252443     0.07900
Br768      Br  0.46112912  0.29801877  0.11339484    -0.02700
C769        C  0.64204527  0.14816989  0.00855124    -0.09340
C770        C  0.62879476  0.17763380  0.03431450     0.06860
C771        C  0.64879035  0.20797940  0.05177782    -0.03110
C772        C  0.67998216  0.20810268  0.04267514    -0.07560
C773        C  0.69203216  0.18187269  0.01408305     0.05970
C774        C  0.67259717  0.15076265  0.99787411    -0.02580
Br775      Br  0.68502003  0.11479826  0.95713735    -0.02280
H776        H  0.62862308  0.12398171  0.99431862     0.09880
H777        H  0.69352831  0.23448432  0.05387540     0.07900
Br778      Br  0.63608462  0.25731236  0.08154420    -0.02700
C779        C  0.79410591  0.21553296  0.96255280    -0.09340
C780        C  0.77213939  0.22558288  0.98997683     0.06860
C781        C  0.77313873  0.26731048  0.00666916    -0.03110
C782        C  0.79594856  0.29712009  0.99717425    -0.07560
C783        C  0.81994001  0.28576959  0.97293349     0.05970
C784        C  0.81847353  0.24465907  0.95467277    -0.02580
Br785      Br  0.84986082  0.22485752  0.92131073    -0.02280
H786        H  0.79286367  0.18481869  0.94763309     0.09880
H787        H  0.79550902  0.32915483  0.01037022     0.07900
Br788      Br  0.74510353  0.28532910  0.04445415    -0.02700
C789        C  0.04601527  0.10643878  0.85407641    -0.09340
C790        C  0.03460035  0.10615522  0.89064802     0.06860
C791        C  0.00726008  0.08231669  0.89803331    -0.03110
C792        C  0.99209399  0.06028411  0.86924853    -0.07560
C793        C  0.00428492  0.05979518  0.83321770     0.05970
C794        C  0.03162991  0.08283071  0.82591738    -0.02580
Br795      Br  0.05049517  0.08249783  0.77786635    -0.02280
H796        H  0.06681067  0.12440434  0.84738944     0.09880
H797        H  0.97134451  0.04189653  0.87533291     0.07900
Br798      Br  0.99113352  0.07447004  0.94703941    -0.02700
C799        C  0.14422046  0.09351566  0.96427170    -0.09340
C800        C  0.13719498  0.13234927  0.94605580     0.06860
C801        C  0.15979747  0.16529491  0.94226703    -0.03110
C802        C  0.18720273  0.16185970  0.96128561    -0.07560
C803        C  0.19259326  0.12549281  0.98399393     0.05970
C804        C  0.17113854  0.09029106  0.98400969    -0.02580
Br805      Br  0.17160973  0.04401707  0.01920269    -0.02280
H806        H  0.12666108  0.06848853  0.96805366     0.09880
H807        H  0.20244642  0.19001552  0.96172707     0.07900
Br808      Br  0.15281733  0.21771188  0.91490839    -0.02700
C809        C  0.36988478  0.42188826  0.13395333    -0.09340
C810        C  0.38810938  0.43469423  0.10360657     0.06860
C811        C  0.41991640  0.42893719  0.10493142    -0.03110
C812        C  0.43290185  0.40962309  0.13588060    -0.07560
C813        C  0.41456163  0.39501653  0.16556739     0.05970
C814        C  0.38284318  0.40209293  0.16474446    -0.02580
Br815      Br  0.35660817  0.38751297  0.20575052    -0.02280
H816        H  0.34542533  0.42672216  0.13344244     0.09880
H817        H  0.45736699  0.40482606  0.13627696     0.07900
Br818      Br  0.44648741  0.44746599  0.06535223    -0.02700
C819        C  0.28967799  0.03544021  0.06235197    -0.09340
C820        C  0.31858177  0.04420739  0.04707325     0.06860
C821        C  0.32381949  0.08463046  0.02955623    -0.03110
C822        C  0.29940265  0.11298268  0.02367631    -0.07560
C823        C  0.26895076  0.10046773  0.03256393     0.05970
C824        C  0.26495247  0.06315312  0.05567036    -0.02580
Br825      Br  0.22750713  0.04603624  0.07904947    -0.02280
H826        H  0.28577126  0.00496427  0.07719668     0.09880
H827        H  0.30383048  0.14256284  0.00784239     0.07900
Br828      Br  0.36316561  0.10004160  0.00945642    -0.02700
C829        C  0.78878302  0.12697853  0.41098130    -0.09340
C830        C  0.79736184  0.16189873  0.38790927     0.06860
C831        C  0.79038638  0.20540443  0.39839382    -0.03110
C832        C  0.77640592  0.21347838  0.43238856    -0.07560
C833        C  0.76906516  0.17882689  0.45631819     0.05970
C834        C  0.77515231  0.13516829  0.44539820    -0.02580
Br835      Br  0.76823078  0.08626313  0.47760729    -0.02280
H836        H  0.79413142  0.09347348  0.40301188     0.09880
H837        H  0.77160046  0.24713673  0.44046876     0.07900
Br838      Br  0.79901054  0.25504582  0.36726434    -0.02700
C839        C  0.74981658  0.17768041  0.07127480    -0.09340
C840        C  0.75858954  0.16533781  0.03531807     0.06860
C841        C  0.78219260  0.13397225  0.03127926    -0.03110
C842        C  0.79873791  0.12067971  0.06200657    -0.07560
C843        C  0.79149816  0.13668847  0.09725456     0.05970
C844        C  0.76570601  0.16349209  0.10200174    -0.02580
Br845      Br  0.75350256  0.18712677  0.14908645    -0.02280
H846        H  0.73241738  0.20162843  0.07598402     0.09880
H847        H  0.81808756  0.09905466  0.05817469     0.07900
Br848      Br  0.79338005  0.10803118  0.98481616    -0.02700
C849        C  0.18797230  0.14140355  0.39338193    -0.09340
C850        C  0.18624813  0.09889713  0.37841236     0.06860
C851        C  0.20528926  0.06586744  0.39233355    -0.03110
C852        C  0.22151873  0.07387291  0.42467490    -0.07560
C853        C  0.21813392  0.11403098  0.44340641     0.05970
C854        C  0.20419100  0.14920209  0.42536290    -0.02580
Br855      Br  0.20589891  0.20808528  0.44409454    -0.02280
H856        H  0.17507051  0.16809118  0.38171972     0.09880
H857        H  0.23389473  0.04732449  0.43714317     0.07900
Br858      Br  0.20922754  0.00936439  0.36921721    -0.02700
C859        C  0.19665101  0.14675383  0.11871984    -0.09340
C860        C  0.16481061  0.14186808  0.11661158     0.06860
C861        C  0.15066213  0.14814491  0.08295681    -0.03110
C862        C  0.16842392  0.15254956  0.05155762    -0.07560
C863        C  0.20033042  0.14481996  0.05162738     0.05970
C864        C  0.21466073  0.14979943  0.08631350    -0.02580
Br865      Br  0.25646099  0.16714617  0.09261091    -0.02280
H866        H  0.20755095  0.14654290  0.14531073     0.09880
H867        H  0.15598055  0.15820279  0.02665874     0.07900
Br868      Br  0.10704100  0.14743084  0.07728353    -0.02700
C869        C  0.01316360  0.36023146  0.26256591    -0.09340
C870        C  0.00844929  0.39589893  0.23888530     0.06860
C871        C  0.98474302  0.39276041  0.21290832    -0.03110
C872        C  0.96643495  0.35477104  0.21138646    -0.07560
C873        C  0.97097097  0.31947348  0.23543471     0.05970
C874        C  0.99495162  0.32225414  0.26092733    -0.02580
Br875      Br  0.00556766  0.27436319  0.29257022    -0.02280
H876        H  0.03160760  0.36141856  0.28208731     0.09880
H877        H  0.94790147  0.35340244  0.19197749     0.07900
Br878      Br  0.97435807  0.43979257  0.18042195    -0.02700
C879        C  0.68329029  0.22363258  0.53290159    -0.09340
C880        C  0.71027741  0.19897368  0.53577339     0.06860
C881        C  0.71878335  0.18473788  0.57109083    -0.03110
C882        C  0.70093700  0.19598586  0.60202194    -0.07560
C883        C  0.67388116  0.22012026  0.59864264     0.05970
C884        C  0.66484437  0.23317721  0.56328690    -0.02580
Br885      Br  0.62626925  0.25979752  0.55283480    -0.02280
H886        H  0.67573552  0.23503687  0.50645526     0.09880
H887        H  0.70817567  0.18522640  0.62888770     0.07900
Br888      Br  0.75251440  0.14683320  0.57926728    -0.02700
C889        C  0.67594401  0.25902870  0.91992451    -0.09340
C890        C  0.68438921  0.23543353  0.88803704     0.06860
C891        C  0.70973379  0.20685316  0.89014838    -0.03110
C892        C  0.72307267  0.19896029  0.92434392    -0.07560
C893        C  0.71214989  0.21931602  0.95674275     0.05970
C894        C  0.68978600  0.25216123  0.95352175    -0.02580
Br895      Br  0.67666810  0.29045426  0.99263382    -0.02280
H896        H  0.65757814  0.28245502  0.91962888     0.09880
H897        H  0.74057197  0.17411325  0.92602270     0.07900
Br898      Br  0.72816311  0.17749774  0.84864878    -0.02700
C899        C  0.24395244  0.11941763  0.56693144    -0.09340
C900        C  0.25656050  0.13935797  0.53519161     0.06860
C901        C  0.28030132  0.17053440  0.53919551    -0.03110
C902        C  0.29343028  0.17724795  0.57353949    -0.07560
C903        C  0.28279001  0.15389546  0.60428598     0.05970
C904        C  0.25692936  0.12642388  0.60134336    -0.02580
Br905      Br  0.24136161  0.09257482  0.64208600    -0.02280
H906        H  0.22607923  0.09478012  0.56447381     0.09880
H907        H  0.31306829  0.19897387  0.57587976     0.07900
Br908      Br  0.29734111  0.20222129  0.49821779    -0.02700
C909        C  0.27533691  0.08834032  0.91253479    -0.09340
C910        C  0.28146847  0.13021524  0.89817919     0.06860
C911        C  0.27332229  0.16794633  0.91840170    -0.03110
C912        C  0.26057655  0.16313531  0.95358650    -0.07560
C913        C  0.25485506  0.12114476  0.96832688     0.05970
C914        C  0.26191116  0.08354318  0.94723952    -0.02580
Br915      Br  0.25475609  0.02509007  0.96464987    -0.02280
H916        H  0.28161405  0.05919638  0.89690939     0.09880
H917        H  0.25595440  0.19219636  0.97008467     0.07900
Br918      Br  0.28160512  0.22630489  0.90057931    -0.02700
C919        C  0.46830928  0.46228181  0.75529938    -0.09340
C920        C  0.47466927  0.50645298  0.74723610     0.06860
C921        C  0.50488375  0.52016716  0.74001407    -0.03110
C922        C  0.52838863  0.48927830  0.74042392    -0.07560
C923        C  0.52196084  0.44500614  0.74838695     0.05970
C924        C  0.49172166  0.43153298  0.75577760    -0.02580
Br925      Br  0.48121676  0.37123975  0.76496427    -0.02280
H926        H  0.44502129  0.45164014  0.76080048     0.09880
H927        H  0.55167832  0.49982208  0.73489945     0.07900
Br928      Br  0.51494329  0.08082668  0.73105996    -0.02700
N929        N  0.33769051  0.63428481  0.67562540    -0.27470
N930        N  0.31593898  0.65414313  0.69499088    -0.35330
C931        C  0.29348125  0.66607394  0.67242383     0.00870
C932        C  0.30162694  0.65342358  0.63720190     0.06890
C933        C  0.32964762  0.63335696  0.64006854    -0.06210
H934        H  0.27220323  0.68080055  0.68130954     0.07560
H935        H  0.34253552  0.61738104  0.61821510     0.08760
Cu936      Cu  0.31450879  0.65862694  0.75140392     0.44170
Cu937      Cu  0.37600641  0.60526246  0.69791440     0.41990
Cu938      Cu  0.37228722  0.59610755  0.79534607     0.43880
N939        N  0.31370057  0.64460865  0.80661405    -0.34300
N940        N  0.33461395  0.62007693  0.82210549    -0.29110
C941        C  0.32648521  0.61221803  0.85711897    -0.05210
C942        C  0.29929489  0.63322394  0.86404398     0.07000
C943        C  0.29160253  0.65342836  0.83154911     0.00800
H944        H  0.33918999  0.59207558  0.87592823     0.08450
H945        H  0.27094356  0.67129581  0.82593328     0.07530
N946        N  0.40796852  0.57245335  0.76461588    -0.36310
N947        N  0.40988344  0.57563217  0.72838603    -0.28490
C948        C  0.43502547  0.55431037  0.71659442    -0.03730
C949        C  0.44938642  0.53751667  0.74704665     0.04880
C950        C  0.43148004  0.54906569  0.77693512     0.02970
H951        H  0.44144854  0.54917168  0.68803164     0.08080
H952        H  0.43458526  0.53967728  0.80535196     0.06910
N953        N  0.62915029  0.76859128  0.67377960    -0.27470
N954        N  0.63827026  0.73205197  0.68972044    -0.35330
C955        C  0.65461474  0.70846704  0.66512000     0.00870
C956        C  0.65585679  0.73128132  0.63213855     0.06890
C957        C  0.63973680  0.76946876  0.63898101    -0.06210
H958        H  0.66597299  0.67797033  0.67138974     0.07560
H959        H  0.63733935  0.79739210  0.62096282     0.08760
Cu960      Cu  0.63465316  0.72058539  0.74577326     0.44170
Cu961      Cu  0.60477040  0.81840874  0.69897643     0.41990
Cu962      Cu  0.60144341  0.81425754  0.79463945     0.43880
N963        N  0.64250932  0.73513450  0.80054758    -0.34860
N964        N  0.63188111  0.77091300  0.81674414    -0.29110
C965        C  0.64546832  0.77631661  0.84916265    -0.05210
C966        C  0.66570564  0.74204855  0.85445103     0.07000
C967        C  0.66268032  0.71609196  0.82295643     0.00800
H968        H  0.64123542  0.80433985  0.86689702     0.08450
H969        H  0.67409687  0.68578446  0.81614159     0.07530
N970        N  0.57716964  0.85986887  0.76574261    -0.36310
N971        N  0.57922237  0.86243474  0.72952295    -0.28490
C972        C  0.56097550  0.89467136  0.71785717    -0.03730
C973        C  0.54679520  0.91303724  0.74840351     0.04880
C974        C  0.55739284  0.89013949  0.77833946     0.02970
H975        H  0.55720583  0.90265831  0.68927745     0.08080
H976        H  0.55060005  0.89429744  0.80692331     0.06910
N977        N  0.11435220  0.58734945  0.18179968    -0.27470
N978        N  0.12403633  0.62057816  0.20222562    -0.35330
C979        C  0.14399337  0.64524493  0.18264953     0.00870
C980        C  0.14649135  0.62677684  0.14808049     0.06890
C981        C  0.12756042  0.59017178  0.14841165    -0.06210
H982        H  0.15614987  0.67374174  0.19308129     0.07560
H983        H  0.12420018  0.56673389  0.12624827     0.08760
Cu984      Cu  0.11486958  0.62481640  0.25723855     0.44170
Cu985      Cu  0.08636315  0.53722761  0.20114172     0.41990
Cu986      Cu  0.09051132  0.52069081  0.29834842     0.43880
N987        N  0.13065011  0.60133602  0.30568695    -0.34860
N988        N  0.12364531  0.56261368  0.32008937    -0.29110
C989        C  0.14285367  0.55491479  0.34790886    -0.05210
C990        C  0.16309727  0.59017600  0.35029156     0.07000
C991        C  0.15433209  0.61906816  0.32344118     0.00800
H992        H  0.14202279  0.52595220  0.36514521     0.08450
H993        H  0.16507139  0.65018288  0.31635495     0.07530
N994        N  0.06139290  0.98448054  0.26462768    -0.36310
N995        N  0.06049184  0.49022692  0.22861570    -0.28490
C996        C  0.04120440  0.96057094  0.21389899    -0.03730
C997        C  0.02879695  0.93512145  0.24204384     0.04880
C998        C  0.04239591  0.95113176  0.27382540     0.02970
H999        H  0.03769426  0.95673889  0.18464404     0.08080
H1000       H  0.03919377  0.93881003  0.30154492     0.06910
N1001       N  0.85229344  0.66285457  0.31292333    -0.27470
N1002       N  0.83039589  0.63918018  0.29765037    -0.35330
C1003       C  0.80802865  0.63221814  0.32288594     0.00870
C1004       C  0.81641410  0.65305164  0.35519756     0.06890
C1005       C  0.84462454  0.67167778  0.34800809    -0.06210
H1006       H  0.78627272  0.61671944  0.31719797     0.07560
H1007       H  0.85739859  0.69332124  0.36597154     0.08760
Cu1008     Cu  0.82962775  0.62689088  0.24148294     0.44170
Cu1009     Cu  0.88757437  0.69216858  0.28422398     0.41990
Cu1010     Cu  0.88544217  0.69197847  0.18637198     0.43880
N1011       N  0.83026475  0.63024914  0.18443700    -0.34860
N1012       N  0.85024139  0.65346855  0.16466661    -0.29110
C1013       C  0.84084693  0.65448083  0.12958116    -0.05210
C1014       C  0.81357942  0.63138967  0.12715837     0.07000
C1015       C  0.80766749  0.61626953  0.16243756     0.00800
H1016       H  0.85121608  0.67476578  0.10831685     0.08450
H1017       H  0.78691699  0.60033606  0.17218088     0.07530
N1018       N  0.91555403  0.73161352  0.21611920    -0.36310
N1019       N  0.91616611  0.73065372  0.25245155    -0.28490
C1020       C  0.93629719  0.76063092  0.26465480    -0.03730
C1021       C  0.94959674  0.78138877  0.23458226     0.04880
C1022       C  0.93562551  0.76244946  0.20414688     0.02970
H1023       H  0.93976237  0.76816996  0.29345410     0.08080
H1024       H  0.93934061  0.77106688  0.17553150     0.06910
C1025       C  0.37333656  0.95286721  0.07063485     0.02950
C1026       C  0.37254728  0.92800187  0.03775763    -0.13200
C1027       C  0.35527858  0.94224424  0.00786802     0.00450
C1028       C  0.34020161  0.48281512  0.01049576    -0.11730
C1029       C  0.34036078  0.50749537  0.04323488     0.02940
C1030       C  0.35679295  0.49227635  0.07337885    -0.11150
H1031       H  0.38314964  0.89589192  0.03668032     0.08530
H1032       H  0.32576903  0.49312693  0.98814663     0.06060
H1033       H  0.35589485  0.51022337  0.09925386     0.05910
C1034       C  0.24450576  0.61794537  0.00752016     0.00380
C1035       C  0.21489363  0.63026243  0.01514268     0.00380
C1036       C  0.05348416  0.62766783  0.92006328     0.02950
C1037       C  0.08535572  0.62108168  0.91894966    -0.13200
C1038       C  0.10451253  0.64299888  0.94350439     0.00450
C1039       C  0.09185499  0.67006006  0.97078231    -0.11730
C1040       C  0.06026236  0.67612622  0.97400334     0.02940
C1041       C  0.04097080  0.65542845  0.94807844    -0.11150
H1042       H  0.09539029  0.59851846  0.89906010     0.08530
H1043       H  0.10683182  0.68523350  0.99082361     0.06060
H1044       H  0.01672355  0.66177759  0.94923847     0.05910
C1045       C  0.71927568  0.69851093  0.99294793     0.00380
C1046       C  0.74892169  0.69281617  0.00326133     0.00380
C1047       C  0.54838125  0.68351577  0.07885526     0.02950
C1048       C  0.53131230  0.66047183  0.05223991    -0.13200
C1049       C  0.54540182  0.64728240  0.01923243     0.00450
C1050       C  0.57585395  0.65932724  0.01226376    -0.11730
C1051       C  0.59459398  0.67608325  0.04029468     0.02940
C1052       C  0.58022446  0.68781199  0.07385485    -0.11150
H1053       H  0.50737605  0.65308547  0.05715434     0.08530
H1054       H  0.58524344  0.65181674  0.98525818     0.06060
H1055       H  0.59334620  0.70044000  0.09630972     0.05910
C1056       C  0.87436226  0.87265032  0.93423589     0.02950
C1057       C  0.85657119  0.83385619  0.93559828    -0.13200
C1058       C  0.84584892  0.81775247  0.96971940     0.00450
C1059       C  0.85477450  0.83968461  0.00203647    -0.11730
C1060       C  0.86714363  0.88215349  0.00044180     0.02940
C1061       C  0.87833901  0.89787495  0.96653755    -0.11150
H1062       H  0.85005453  0.81788606  0.91014746     0.08530
H1063       H  0.84643270  0.82780867  0.02851598     0.06060
H1064       H  0.88824378  0.93063508  0.96481645     0.05910
O1065       O  0.45418174  0.88569196  0.20890300    -0.73130
O1066       O  0.49756074  0.81624850  0.28496320    -0.74110
O1067       O  0.49924225  0.81916298  0.20727153    -0.62730
O1068       O  0.45179522  0.88220661  0.28791881    -0.71140
O1069       O  0.41679461  0.82936146  0.28653302    -0.70690
O1070       O  0.46227581  0.76874432  0.20483729    -0.61940
O1071       O  0.46278683  0.76312512  0.28280281    -0.74450
O1072       O  0.41729350  0.83518814  0.20805531    -0.73230
Cu1073     Cu  0.47685219  0.85275405  0.24741799     1.04560
Cu1074     Cu  0.43844576  0.79744421  0.24554057     1.04330
C1075       C  0.42908089  0.87114074  0.19600200     0.93070
C1076       C  0.48795037  0.77834127  0.29523961     0.92210
C1077       C  0.48794484  0.78391478  0.19349056     0.84360
C1078       C  0.42705106  0.86494525  0.30068011     0.90630
C1079       C  0.37611026  0.94280707  0.43404901     0.02950
C1080       C  0.35913924  0.48191960  0.43841343    -0.13200
C1081       C  0.35300949  0.49934255  0.47404012     0.00450
C1082       C  0.36754766  0.47897405  0.50363093    -0.11730
C1083       C  0.37582727  0.93467516  0.50081806     0.02940
C1084       C  0.38203717  0.91761837  0.46564348    -0.11150
H1085       H  0.34982088  0.49713944  0.41420435     0.08530
H1086       H  0.36788374  0.49419111  0.53039978     0.06060
H1087       H  0.38984771  0.88398595  0.46296476     0.05910
C1088       C  0.05640601  0.62862973  0.58257204     0.02950
C1089       C  0.04182555  0.65677948  0.55739561    -0.13200
C1090       C  0.05938564  0.67981915  0.53085419     0.00450
C1091       C  0.09111627  0.67484525  0.53024249    -0.11730
C1092       C  0.10571473  0.64686925  0.55434419     0.02940
C1093       C  0.08833850  0.62344070  0.58045374    -0.11150
H1094       H  0.01727852  0.66056055  0.55845342     0.08530
H1095       H  0.10469211  0.69135902  0.50931084     0.06060
H1096       H  0.09955337  0.60072940  0.59868863     0.05910
C1097       C  0.25090572  0.61952444  0.49818764     0.00380
C1098       C  0.22237677  0.61722095  0.48372364     0.00380
C1099       C  0.72598027  0.68488207  0.50052619     0.00380
C1100       C  0.75650327  0.69004554  0.49330675     0.00380
C1101       C  0.56464058  0.69495318  0.40490097     0.02950
C1102       C  0.59700386  0.69092270  0.40392618    -0.13200
C1103       C  0.61317260  0.68192475  0.43630138     0.00450
C1104       C  0.59667760  0.67494736  0.46905796    -0.11730
C1105       C  0.56516328  0.66936095  0.46896497     0.02940
C1106       C  0.54895958  0.68164139  0.43769166    -0.11150
H1107       H  0.60958695  0.69296724  0.37822528     0.08530
H1108       H  0.60873534  0.66727114  0.49411885     0.06060
H1109       H  0.52433145  0.67978290  0.43911033     0.05910
C1110       C  0.88317430  0.85743165  0.56727916     0.02950
C1111       C  0.86675955  0.81740298  0.57021338    -0.13200
C1112       C  0.85476757  0.79720851  0.53867653     0.00450
C1113       C  0.86095596  0.81561672  0.50403122    -0.11730
C1114       C  0.87279491  0.85859151  0.50098561     0.02940
C1115       C  0.88554270  0.87832412  0.53254647    -0.11150
H1116       H  0.86214341  0.80310530  0.59702983     0.08530
H1117       H  0.85031707  0.80071879  0.48013117     0.06060
H1118       H  0.89450334  0.91164137  0.53094197     0.05910
O1119       O  0.96344479  0.54745286  0.79125085    -0.73130
O1120       O  0.92274191  0.97865852  0.70895627    -0.74110
O1121       O  0.91989049  0.97799311  0.78854833    -0.62730
O1122       O  0.96685035  0.54878295  0.71226529    -0.71140
O1123       O  0.00370633  0.99920568  0.71182198    -0.70690
O1124       O  0.95755561  0.93000915  0.78952402    -0.61940
O1125       O  0.96010060  0.92999744  0.70989674    -0.74450
O1126       O  0.00144281  0.99959358  0.79069630    -0.73230
Cu1127     Cu  0.94187303  0.51481410  0.75016970     1.04560
Cu1128     Cu  0.98189145  0.96289892  0.75054376     1.04330
C1129       C  0.98890738  0.53431302  0.80378825     0.93070
C1130       C  0.93548755  0.94409880  0.69576262     0.92210
C1131       C  0.93200741  0.94377016  0.80236642     0.84360
C1132       C  0.99257258  0.53507673  0.69984829     0.90630
N1133       N  0.27567457  0.81194935  0.31249063    -0.27470
N1134       N  0.26481451  0.84838593  0.29832224    -0.35330
C1135       C  0.24528258  0.86675149  0.32279518     0.00870
C1136       C  0.24321185  0.83983024  0.35363674     0.06890
C1137       C  0.26291591  0.80541681  0.34570424    -0.06210
H1138       H  0.23429666  0.89796508  0.31852739     0.07560
H1139       H  0.26825239  0.77766150  0.36292923     0.08760
Cu1140     Cu  0.27479976  0.86688529  0.24472512     0.44170
Cu1141     Cu  0.30920660  0.77391151  0.28852647     0.41990
Cu1142     Cu  0.32559793  0.78932931  0.19445519     0.43880
N1143       N  0.27684291  0.85958921  0.18803303    -0.34860
N1144       N  0.29421083  0.83073235  0.17025345    -0.29110
C1145       C  0.28500597  0.82777884  0.13519386    -0.05210
C1146       C  0.26072513  0.85585511  0.13079129     0.07000
C1147       C  0.25629557  0.87580702  0.16463076     0.00800
H1148       H  0.29373231  0.80434365  0.11519563     0.08450
H1149       H  0.23760034  0.89702412  0.17262783     0.07530
N1150       N  0.34978283  0.74538265  0.22626187    -0.36310
N1151       N  0.34347568  0.74016170  0.26162386    -0.28490
C1152       C  0.36138222  0.70875050  0.27528434    -0.03730
C1153       C  0.37948487  0.69237572  0.24690317     0.04880
C1154       C  0.37185737  0.71696483  0.21626997     0.02970
H1155       H  0.36101960  0.69861156  0.30380056     0.08080
H1156       H  0.38095699  0.71343532  0.18855039     0.06910
N1157       N  0.55345441  0.92082958  0.33122536    -0.27470
N1158       N  0.57378146  0.89517467  0.31483457    -0.35330
C1159       C  0.59513118  0.88426322  0.33934007     0.00870
C1160       C  0.58767879  0.90357452  0.37279175     0.06890
C1161       C  0.56131198  0.92682137  0.36650554    -0.06210
H1162       H  0.61626377  0.86786843  0.33228878     0.07560
H1163       H  0.55059603  0.95023219  0.38506038     0.08760
Cu1164     Cu  0.57574873  0.88532925  0.25843547     0.44170
Cu1165     Cu  0.52086944  0.95605396  0.30353120     0.41990
Cu1166     Cu  0.52416927  0.95179332  0.20470719     0.43880
N1167       N  0.57687237  0.88836463  0.20152891    -0.34860
N1168       N  0.55741045  0.91126170  0.18196256    -0.29110
C1169       C  0.56709917  0.91187068  0.14669596    -0.05210
C1170       C  0.59410563  0.88878444  0.14392767     0.07000
C1171       C  0.59971252  0.87457554  0.17928796     0.00800
H1172       H  0.55747134  0.93249255  0.12566292     0.08450
H1173       H  0.62042419  0.85951614  0.18882330     0.07530
N1174       N  0.49745652  0.99626359  0.23406306    -0.36310
N1175       N  0.49577176  0.99697944  0.27044190    -0.28490
C1176       C  0.47721864  0.52969218  0.28135714    -0.03730
C1177       C  0.46712104  0.55112736  0.25036929     0.04880
C1178       C  0.48019907  0.52885155  0.22081365     0.02970
H1179       H  0.47187069  0.53775360  0.30978728     0.08080
H1180       H  0.47716315  0.53549708  0.19184661     0.06910
N1181       N  0.05094761  0.87906187  0.82312469    -0.27470
N1182       N  0.07301621  0.90281865  0.80780945    -0.35330
C1183       C  0.09613341  0.90651415  0.83150899     0.00870
C1184       C  0.08824112  0.88346837  0.86306921     0.06890
C1185       C  0.05917587  0.86731215  0.85709336    -0.06210
H1186       H  0.11774265  0.92258371  0.82540219     0.07560
H1187       H  0.04523245  0.84746096  0.87549443     0.08760
Cu1188     Cu  0.07283715  0.92118107  0.75339259     0.44170
Cu1189     Cu  0.01340840  0.85666022  0.79524353     0.41990
Cu1190     Cu  0.01185026  0.86978153  0.69889548     0.43880
N1191       N  0.07370127  0.91539569  0.69695751    -0.34860
N1192       N  0.05184156  0.89662817  0.67744753    -0.29110
C1193       C  0.06251197  0.88903914  0.64321233    -0.05210
C1194       C  0.09262589  0.90266247  0.64141600     0.07000
C1195       C  0.09884107  0.92008028  0.67564361     0.00800
H1196       H  0.05005797  0.87139775  0.62219126     0.08450
H1197       H  0.12086820  0.93087187  0.68549425     0.07530
N1198       N  0.97973361  0.83209550  0.72711184    -0.36310
N1199       N  0.98058989  0.82762653  0.76319833    -0.28490
C1200       C  0.96029216  0.79677478  0.77378760    -0.03730
C1201       C  0.94559031  0.78100405  0.74287602     0.04880
C1202       C  0.95869817  0.80403285  0.71363360     0.02970
H1203       H  0.95844598  0.78405351  0.80152269     0.08080
H1204       H  0.95467171  0.79877909  0.68459640     0.06910
N1205       N  0.77976675  0.99848207  0.82496555    -0.27470
N1206       N  0.76232075  0.96981285  0.80739290    -0.35330
C1207       C  0.73973071  0.95590999  0.82989462     0.00870
C1208       C  0.74277256  0.97750671  0.86299091     0.06890
C1209       C  0.76846724  0.00391935  0.85930438    -0.06210
H1210       H  0.72247742  0.93180739  0.82266516     0.07560
H1211       H  0.77858551  0.02465296  0.88023895     0.08760
Cu1212     Cu  0.76760436  0.95358594  0.75306958     0.44170
Cu1213     Cu  0.81763682  0.52902967  0.80097351     0.41990
Cu1214     Cu  0.82809579  0.50720019  0.70312961     0.43880
N1215       N  0.77002453  0.95536863  0.69690873    -0.34860
N1216       N  0.79319299  0.97270853  0.67834536    -0.29110
C1217       C  0.78614179  0.97410914  0.64257712    -0.05210
C1218       C  0.75636722  0.95899043  0.63862681     0.07000
C1219       C  0.74723584  0.94647917  0.67373867     0.00800
H1220       H  0.80157505  0.98668437  0.62170935     0.08450
H1221       H  0.72483548  0.93505610  0.68244230     0.07530
N1222       N  0.85155970  0.55543750  0.73161521    -0.36310
N1223       N  0.84884503  0.56223660  0.76745300    -0.28490
C1224       C  0.86487652  0.59853233  0.77635937    -0.03730
C1225       C  0.87788962  0.61627271  0.74448930     0.04880
C1226       C  0.86853863  0.58793019  0.71665741     0.02970
H1227       H  0.86544468  0.61236512  0.80385429     0.08080
H1228       H  0.87126887  0.59216793  0.68731315     0.06910
C1229       C  0.35791654  0.87511690  0.59062631     0.02950
C1230       C  0.37567177  0.89369655  0.56180516    -0.13200
C1231       C  0.36160155  0.90545000  0.52889931     0.00450
C1232       C  0.33043874  0.89663958  0.52477879    -0.11730
C1233       C  0.31157797  0.88489789  0.55496983     0.02940
C1234       C  0.32584039  0.87388195  0.58807123    -0.11150
H1235       H  0.40006421  0.89813107  0.56471078     0.08530
H1236       H  0.32045302  0.40357188  0.49830753     0.06060
H1237       H  0.31250437  0.86461318  0.61209140     0.05910
C1238       C  0.16229941  0.87394037  0.50966642     0.00380
C1239       C  0.19235924  0.87567326  0.49933466     0.00380
C1240       C  0.03189621  0.71457822  0.43777265     0.02950
C1241       C  0.03150917  0.69163056  0.47159116    -0.13200
C1242       C  0.04670150  0.70920375  0.50237758     0.00450
C1243       C  0.05999840  0.75120199  0.49960361    -0.11730
C1244       C  0.06295975  0.77215492  0.46549480     0.02940
C1245       C  0.04827473  0.75444842  0.43476796    -0.11150
H1246       H  0.02194548  0.65863738  0.47284564     0.08530
H1247       H  0.07310443  0.76383252  0.52258259     0.06060
H1248       H  0.05113691  0.77013139  0.40816061     0.05910
C1249       C  0.03055003  0.71148879  0.06881391     0.02950
C1250       C  0.03270999  0.68752421  0.03527610    -0.13200
C1251       C  0.04926077  0.70489116  0.00487452     0.00450
C1252       C  0.06259517  0.74695120  0.00821919    -0.11730
C1253       C  0.06149199  0.77033074  0.04159403     0.02940
C1254       C  0.04514458  0.75277619  0.07159422    -0.11150
H1255       H  0.02363408  0.65426940  0.03386454     0.08530
H1256       H  0.07661864  0.75967379  0.98573283     0.06060
H1257       H  0.04491724  0.77036989  0.09765622     0.05910
C1258       C  0.35452341  0.86092599  0.92641457     0.02950
C1259       C  0.36586428  0.89029283  0.95361548    -0.13200
C1260       C  0.34554296  0.91059737  0.97898031     0.00450
C1261       C  0.31442635  0.89981234  0.97808686    -0.11730
C1262       C  0.30327552  0.86977771  0.95248384     0.02940
C1263       C  0.32301582  0.85114548  0.92633320    -0.11150
H1264       H  0.39007903  0.89724166  0.95512594     0.08530
H1265       H  0.29875898  0.41412689  0.99816475     0.06060
H1266       H  0.31373905  0.82858892  0.90605884     0.05910
C1267       C  0.18700283  0.85634507  0.00012926     0.00380
C1268       C  0.15647305  0.86657084  0.99613287     0.00380
C1269       C  0.69242159  0.95153118  0.00799604     0.00380
C1270       C  0.66337446  0.95388242  0.02212253     0.00380
C1271       C  0.53230240  0.60013443  0.92805079     0.02950
C1272       C  0.52451935  0.62648313  0.95878695    -0.13200
C1273       C  0.53227553  0.61371532  0.99428801     0.00450
C1274       C  0.54314719  0.57110579  0.99934977    -0.11730
C1275       C  0.55740522  0.54878887  0.96968238     0.02940
C1276       C  0.55060259  0.56246794  0.93346022    -0.11150
H1277       H  0.51524121  0.65906915  0.95481062     0.08530
H1278       H  0.54829606  0.56128741  0.02727196     0.06060
H1279       H  0.56122740  0.54650791  0.90989877     0.05910
C1280       C  0.86247426  0.95615906  0.08566420     0.02950
C1281       C  0.87549753  0.93128638  0.05649428    -0.13200
C1282       C  0.85649191  0.91290709  0.02951371     0.00450
C1283       C  0.82494385  0.91987964  0.03190558    -0.11730
C1284       C  0.81197711  0.94346869  0.06110559     0.02940
C1285       C  0.83070859  0.96209048  0.08775824    -0.11150
H1286       H  0.89984905  0.92552193  0.05537881     0.08530
H1287       H  0.81018068  0.90631978  0.01087777     0.06060
H1288       H  0.82064489  0.98134280  0.10997652     0.05910
O1289       O  0.95124144  0.65010630  0.29542239    -0.73130
O1290       O  0.90999319  0.57812514  0.21715028    -0.74110
O1291       O  0.90936245  0.57867965  0.29623130    -0.62730
O1292       O  0.95180638  0.64875747  0.21538726    -0.71140
O1293       O  0.99069357  0.60259156  0.21621645    -0.70690
O1294       O  0.94767933  0.53162475  0.29548515    -0.61940
O1295       O  0.94883445  0.53155544  0.21681486    -0.74450
O1296       O  0.98957697  0.60294267  0.29539628    -0.73230
Cu1297     Cu  0.92931467  0.61569939  0.25608618     1.04560
Cu1298     Cu  0.97055746  0.56567141  0.25600548     1.04330
C1299       C  0.97631842  0.63683217  0.30886248     0.93070
C1300       C  0.92328685  0.54401724  0.20426937     0.92210
C1301       C  0.92187260  0.54391836  0.30863749     0.84360
C1302       C  0.97748859  0.63583489  0.20225371     0.90630
C1303       C  0.86041209  0.94711087  0.42712788     0.02950
C1304       C  0.87617519  0.91745689  0.45011244    -0.13200
C1305       C  0.85966391  0.88683008  0.47168753     0.00450
C1306       C  0.82791815  0.88576006  0.46895703    -0.11730
C1307       C  0.81186973  0.91989179  0.45286902     0.02940
C1308       C  0.82812366  0.94947649  0.43005171    -0.11150
H1309       H  0.90087916  0.91758072  0.45046755     0.08530
H1310       H  0.81506369  0.86041186  0.48336075     0.06060
H1311       H  0.81583912  0.97376635  0.41450049     0.05910
C1312       C  0.53470706  0.62673983  0.56038843     0.02950
C1313       C  0.53760996  0.65435892  0.52934101    -0.13200
C1314       C  0.55246061  0.63905836  0.49721920     0.00450
C1315       C  0.56364010  0.59585559  0.49622863    -0.11730
C1316       C  0.56283903  0.56949397  0.52761377     0.02940
C1317       C  0.54782701  0.58467060  0.55953448    -0.11150
H1318       H  0.52998380  0.68816770  0.53097545     0.08530
H1319       H  0.57690551  0.58498142  0.47242587     0.06060
H1320       H  0.54799396  0.56495497  0.58435255     0.05910
C1321       C  0.65927084  0.95059741  0.49677380     0.00380
C1322       C  0.68923433  0.94309720  0.50557614     0.00380
O1323       O  0.45374647  0.67479652  0.70956958    -0.73130
O1324       O  0.41086687  0.73479768  0.79506097    -0.74110
O1325       O  0.40816869  0.74026246  0.71639518    -0.62730
O1326       O  0.45706357  0.66925030  0.78861046    -0.71140
O1327       O  0.49241383  0.72154470  0.78784753    -0.70690
O1328       O  0.44347519  0.79279807  0.71706437    -0.61940
O1329       O  0.44644018  0.78673078  0.79560712    -0.74450
O1330       O  0.48894260  0.72742404  0.70923962    -0.73230
Cu1331     Cu  0.43125133  0.70291515  0.75244807     1.04560
Cu1332     Cu  0.46906093  0.75880699  0.75248811     1.04330
C1333       C  0.47762687  0.69234753  0.69505851     0.93070
C1334       C  0.42183584  0.77009973  0.80911538     0.92210
C1335       C  0.41836782  0.77737600  0.70481307     0.84360
C1336       C  0.48241800  0.68483190  0.80029106     0.90630
C1337       C  0.49027874  0.63138071  0.60343189    -0.09340
C1338       C  0.52053625  0.64297239  0.59506857     0.06860
C1339       C  0.53704377  0.66858138  0.62039389    -0.03110
C1340       C  0.52284327  0.68357100  0.65291155    -0.07560
C1341       C  0.49215019  0.67295457  0.66125539     0.05970
C1342       C  0.47597649  0.64596966  0.63600091    -0.02580
Br1343     Br  0.43394519  0.62933624  0.64227572    -0.02280
H1344       H  0.47756380  0.61118268  0.58421297     0.09880
H1345       H  0.53598168  0.70362522  0.67179136     0.07900
Br1346     Br  0.57923268  0.68292294  0.61198289    -0.02700
C1347       C  0.61381389  0.54339256  0.54344484    -0.09340
C1348       C  0.58515356  0.53347977  0.52949359     0.06860
C1349       C  0.57961265  0.99120852  0.51571918    -0.03110
C1350       C  0.60358350  0.96104234  0.51321970    -0.07560
C1351       C  0.63432052  0.97298105  0.52118619     0.05970
C1352       C  0.63773906  0.01326995  0.54165341    -0.02580
Br1353     Br  0.66446221  0.02451877  0.58208840    -0.02280
H1354       H  0.61721526  0.57483680  0.55719366     0.09880
H1355       H  0.59831180  0.92929162  0.50129828     0.07900
Br1356     Br  0.54049364  0.97467118  0.49693712    -0.02700
C1357       C  0.75661695  0.93376137  0.43641514    -0.09340
C1358       C  0.77863613  0.92351011  0.46254042     0.06860
C1359       C  0.76816573  0.91017248  0.49758735    -0.03110
C1360       C  0.73744779  0.90102556  0.50356454    -0.07560
C1361       C  0.71491901  0.92119111  0.48205746     0.05970
C1362       C  0.72507482  0.93346158  0.44570279    -0.02580
Br1363     Br  0.70042382  0.93030248  0.40283959    -0.02280
H1364       H  0.76387293  0.94022305  0.40827808     0.09880
H1365       H  0.73145484  0.88698964  0.52998436     0.07900
Br1366     Br  0.79350004  0.91241240  0.54066251    -0.02700
C1367       C  0.88834914  0.54113312  0.36502062    -0.09340
C1368       C  0.90668902  0.51858567  0.33905501     0.06860
C1369       C  0.91059245  0.97269965  0.34352246    -0.03110
C1370       C  0.89589791  0.95064964  0.37277956    -0.07560
C1371       C  0.87734487  0.97311960  0.39843981     0.05970
C1372       C  0.87414847  0.01907120  0.39468430    -0.02580
Br1373     Br  0.85271206  0.55381474  0.43075376    -0.02280
H1374       H  0.88559322  0.57645156  0.36280193     0.09880
H1375       H  0.89846173  0.91530401  0.37503785     0.07900
Br1376     Br  0.93426007  0.93731635  0.30978937    -0.02700
C1377       C  0.91448320  0.53370479  0.13771037    -0.09340
C1378       C  0.90936130  0.51944091  0.17397773     0.06860
C1379       C  0.89052903  0.98265011  0.18075118    -0.03110
C1380       C  0.87662040  0.96099961  0.15131193    -0.07560
C1381       C  0.88125186  0.97560971  0.11499029     0.05970
C1382       C  0.90050492  0.01211769  0.10820540    -0.02580
Br1383     Br  0.90641369  0.53567866  0.05963023    -0.02280
H1384       H  0.92885649  0.56228337  0.13244891     0.09880
H1385       H  0.86140572  0.93341349  0.15682707     0.07900
Br1386     Br  0.88211371  0.96233532  0.22981181    -0.02700
C1387       C  0.53372324  0.66042589  0.88194520    -0.09340
C1388       C  0.52491483  0.61716365  0.89079467     0.06860
C1389       C  0.50498478  0.59459518  0.86698796    -0.03110
C1390       C  0.49258454  0.61648468  0.83668087    -0.07560
C1391       C  0.49959651  0.66102883  0.82935434     0.05970
C1392       C  0.52130156  0.68253832  0.85200519    -0.02580
Br1393     Br  0.53318264  0.74336185  0.84687783    -0.02280
H1394       H  0.54914901  0.67815253  0.89990406     0.09880
H1395       H  0.47648551  0.59895516  0.81955680     0.07900
Br1396     Br  0.49187465  0.53526177  0.87649267    -0.02700
C1397       C  0.72874135  0.91726038  0.05356906    -0.09340
C1398       C  0.71972132  0.95336681  0.03220393     0.06860
C1399       C  0.73926264  0.99063514  0.03035405    -0.03110
C1400       C  0.76873614  0.98880292  0.04382693    -0.07560
C1401       C  0.77891729  0.95086193  0.06081670     0.05970
C1402       C  0.75813784  0.91652380  0.06859343    -0.02580
Br1403     Br  0.76995852  0.86901246  0.09960332    -0.02280
H1404       H  0.71366069  0.88910601  0.05705208     0.09880
H1405       H  0.78441252  0.01601765  0.03885093     0.07900
Br1406     Br  0.72753583  0.04498974  0.00909265    -0.02700
C1407       C  0.62005395  0.95981167  0.97587543    -0.09340
C1408       C  0.63855342  0.97871041  0.00345657     0.06860
C1409       C  0.63085223  0.02053165  0.01707566    -0.03110
C1410       C  0.60491864  0.54146203  0.00507084    -0.07560
C1411       C  0.58555311  0.52296630  0.97856123     0.05970
C1412       C  0.59375017  0.98171519  0.96324607    -0.02580
Br1413     Br  0.56861625  0.95229295  0.92794548    -0.02280
H1414       H  0.62554346  0.92754554  0.96495577     0.09880
H1415       H  0.59942121  0.57259906  0.01783970     0.07900
Br1416     Br  0.65409802  0.05160883  0.05314540    -0.02700
C1417       C  0.41131672  0.83753741  0.84735599    -0.09340
C1418       C  0.40593545  0.79235204  0.84079976     0.06860
C1419       C  0.38515347  0.76993513  0.86447538    -0.03110
C1420       C  0.37020924  0.79264598  0.89303090    -0.07560
C1421       C  0.37464208  0.83808138  0.89873893     0.05970
C1422       C  0.39575578  0.86049634  0.87557180    -0.02580
Br1423     Br  0.40244688  0.92294331  0.87867445    -0.02280
H1424       H  0.42695353  0.85565646  0.82956535     0.09880
H1425       H  0.35441392  0.77458220  0.91068840     0.07900
Br1426     Br  0.37601510  0.70818662  0.86038384    -0.02700
C1427       C  0.24935651  0.88544879  0.93886653    -0.09340
C1428       C  0.27080719  0.85747683  0.95418070     0.06860
C1429       C  0.26082066  0.81840563  0.97119831    -0.03110
C1430       C  0.22949505  0.81065895  0.97615153    -0.07560
C1431       C  0.20830627  0.84394449  0.96827322     0.05970
C1432       C  0.21819286  0.87591216  0.94238244    -0.02580
Br1433     Br  0.19887933  0.87900984  0.89551758    -0.02280
H1434       H  0.25702682  0.91188882  0.92092655     0.09880
H1435       H  0.22234624  0.78227508  0.99205266     0.07900
Br1436     Br  0.28898276  0.77850674  0.99300807    -0.02700
C1437       C  0.97255130  0.66594477  0.13874334    -0.09340
C1438       C  0.99111465  0.65762621  0.16921390     0.06860
C1439       C  0.02256548  0.66748353  0.16636666    -0.03110
C1440       C  0.03490234  0.68465407  0.13349511    -0.07560
C1441       C  0.01651304  0.69181980  0.10266941     0.05970
C1442       C  0.98500223  0.68254720  0.10564703    -0.02580
Br1443     Br  0.95796531  0.69343546  0.06569397    -0.02280
H1444       H  0.94834318  0.65853043  0.14038032     0.09880
H1445       H  0.05904488  0.69250938  0.13199667     0.07900
Br1446     Br  0.04932409  0.66038465  0.20723089    -0.02700
C1447       C  0.13407653  0.83358534  0.05539837    -0.09340
C1448       C  0.13178702  0.86423174  0.02661485     0.06860
C1449       C  0.10134484  0.87658884  0.01848959    -0.03110
C1450       C  0.07718844  0.84699175  0.02530256    -0.07560
C1451       C  0.08211058  0.80884162  0.04573758     0.05970
C1452       C  0.10981303  0.80528183  0.06447104    -0.02580
Br1453     Br  0.11687856  0.76060388  0.10034487    -0.02280
H1454       H  0.15427163  0.82999603  0.07062053     0.09880
H1455       H  0.05496778  0.85307680  0.01380808     0.07900
Br1456     Br  0.09130674  0.93313202  0.99913424    -0.02700
C1457       C  0.02178916  0.66174340  0.34344554    -0.09340
C1458       C  0.98989692  0.65951463  0.34099165     0.06860
C1459       C  0.97191536  0.67531605  0.37084660    -0.03110
C1460       C  0.98601844  0.69277483  0.40219029    -0.07560
C1461       C  0.01790313  0.69500650  0.40448250     0.05970
C1462       C  0.03581194  0.67935655  0.37463340    -0.02580
Br1463     Br  0.07948146  0.67888802  0.37541608    -0.02280
H1464       H  0.03595421  0.64926529  0.32106752     0.09880
H1465       H  0.97202366  0.70450209  0.42499970     0.07900
Br1466     Br  0.92819434  0.67078705  0.37198050    -0.02700
C1467       C  0.14286097  0.81182996  0.47112680    -0.09340
C1468       C  0.13859785  0.85465517  0.48482231     0.06860
C1469       C  0.10938459  0.87377870  0.48217474    -0.03110
C1470       C  0.08438607  0.84783480  0.47150997    -0.07560
C1471       C  0.08849667  0.80370290  0.46146599     0.05970
C1472       C  0.11830625  0.78702418  0.45844005    -0.02580
Br1473     Br  0.12613249  0.72797546  0.44250594    -0.02280
H1474       H  0.16474897  0.79592545  0.47339247     0.09880
H1475       H  0.06156849  0.86112817  0.47363268     0.07900
Br1476     Br  0.10206009  0.93396146  0.49561360    -0.02700
C1477       C  0.36987151  0.80592288  0.62212802    -0.09340
C1478       C  0.37259282  0.85184690  0.62126059     0.06860
C1479       C  0.38958938  0.87351621  0.64857711    -0.03110
C1480       C  0.40393236  0.84886664  0.67593079    -0.07560
C1481       C  0.40153621  0.80254543  0.67661088     0.05970
C1482       C  0.38425091  0.78127127  0.64908033    -0.02580
Br1483     Br  0.38143954  0.71869192  0.64407429    -0.02280
H1484       H  0.35709942  0.78895333  0.60090635     0.09880
H1485       H  0.41698729  0.86600890  0.69675863     0.07900
Br1486     Br  0.39294848  0.93647778  0.65010961    -0.02700
C1487       C  0.26717609  0.92201624  0.52744316    -0.09340
C1488       C  0.27758135  0.88889852  0.55104673     0.06860
C1489       C  0.25546004  0.85937710  0.56620015    -0.03110
C1490       C  0.22500520  0.86118680  0.55423089    -0.07560
C1491       C  0.21710907  0.88888416  0.52495763     0.05970
C1492       C  0.23797621  0.92151285  0.51364724    -0.02580
Br1493     Br  0.22981433  0.96265554  0.47520776    -0.02280
H1494       H  0.28261746  0.94623367  0.51600910     0.09880
H1495       H  0.20905846  0.83579554  0.56314420     0.07900
Br1496     Br  0.26551575  0.80982148  0.59622027    -0.02700
C1497       C  0.71235182  0.92912132  0.60387189    -0.09340
C1498       C  0.73673786  0.95956947  0.60570569     0.06860
C1499       C  0.74129961  0.98941327  0.57622506    -0.03110
C1500       C  0.72326735  0.98606890  0.54509342    -0.07560
C1501       C  0.69975425  0.95465281  0.54285395     0.05970
C1502       C  0.69387547  0.92647881  0.57290807    -0.02580
Br1503     Br  0.66435175  0.87954088  0.57041408    -0.02280
H1504       H  0.70843690  0.90565105  0.62583016     0.09880
H1505       H  0.72838788  0.00685113  0.52157585     0.07900
Br1506     Br  0.77111148  0.03583892  0.57513602    -0.02700
C1507       C  0.69052612  0.98995284  0.94574331    -0.09340
C1508       C  0.69987205  0.95421735  0.96749907     0.06860
C1509       C  0.72053965  0.92361585  0.95150310    -0.03110
C1510       C  0.73344194  0.93122889  0.91689507    -0.07560
C1511       C  0.72571645  0.96831250  0.89694914     0.05970
C1512       C  0.70302239  0.99660265  0.91039953    -0.02580
Br1513     Br  0.68889299  0.04424986  0.88086071    -0.02280
H1514       H  0.67509450  0.01439373  0.95666064     0.09880
H1515       H  0.75030091  0.90860355  0.90583437     0.07900
Br1516     Br  0.73317540  0.87070392  0.97485492    -0.02700
C1517       C  0.12769361  0.83268468  0.94485422    -0.09340
C1518       C  0.14378251  0.86927195  0.95846423     0.06860
C1519       C  0.14215154  0.90963710  0.93959589    -0.03110
C1520       C  0.12444049  0.91298395  0.90821664    -0.07560
C1521       C  0.10746841  0.87698782  0.89545392     0.05970
C1522       C  0.10943506  0.83621021  0.91377010    -0.02580
Br1523     Br  0.08821651  0.78409815  0.89781945    -0.02280
H1524       H  0.12824176  0.80176766  0.95961409     0.09880
H1525       H  0.12324829  0.44441106  0.89430075     0.07900
Br1526     Br  0.16328648  0.46154899  0.95489587    -0.02700
C1527       C  0.13354827  0.92735933  0.59855563    -0.09340
C1528       C  0.11485061  0.89323402  0.61183928     0.06860
C1529       C  0.11709839  0.85106782  0.59585852    -0.03110
C1530       C  0.13557075  0.84497100  0.56479465    -0.07560
C1531       C  0.15170775  0.88025715  0.54863661     0.05970
C1532       C  0.15190069  0.92132876  0.56712475    -0.02580
Br1533     Br  0.17381897  0.47178975  0.54988563    -0.02280
H1534       H  0.13253592  0.95960091  0.61145256     0.09880
H1535       H  0.13575391  0.81289776  0.55164479     0.07900
Br1536     Br  0.09564775  0.80042782  0.61488622    -0.02700
C1537       C  0.93064880  0.71042932  0.71281312    -0.09340
C1538       C  0.92585195  0.74128787  0.74115671     0.06860
C1539       C  0.90377573  0.73207010  0.76870875    -0.03110
C1540       C  0.88831149  0.69167605  0.76861954    -0.07560
C1541       C  0.89406400  0.65954954  0.74133755     0.05970
C1542       C  0.91513320  0.66990596  0.71255955    -0.02580
Br1543     Br  0.92578405  0.63035768  0.67303550    -0.02280
H1544       H  0.94753606  0.71705692  0.69141303     0.09880
H1545       H  0.87141362  0.68575434  0.79009094     0.07900
Br1546     Br  0.89248136  0.77404395  0.80623135    -0.02700
C1547       C  0.62144315  0.95542935  0.40503471    -0.09340
C1548       C  0.60908709  0.91291572  0.40256352     0.06860
C1549       C  0.61651923  0.88126724  0.42907155    -0.03110
C1550       C  0.63684451  0.89223515  0.45714211    -0.07560
C1551       C  0.64785763  0.93559396  0.46070292     0.05970
C1552       C  0.64000102  0.96717956  0.43431945    -0.02580
Br1553     Br  0.65604790  0.02584596  0.43601637    -0.02280
H1554       H  0.61597089  0.97992162  0.38459521     0.09880
H1555       H  0.64122438  0.86850311  0.47859444     0.07900
Br1556     Br  0.59522530  0.82609211  0.43216139    -0.02700
C1557       C  0.64196230  0.92317442  0.12144869    -0.09340
C1558       C  0.61696153  0.89556869  0.11443565     0.06860
C1559       C  0.61161337  0.88132136  0.07834168    -0.03110
C1560       C  0.63017953  0.89687756  0.04958898    -0.07560
C1561       C  0.65300566  0.92899845  0.05563540     0.05970
C1562       C  0.65972173  0.94075857  0.09265246    -0.02580
Br1563     Br  0.69019369  0.98257521  0.10789891    -0.02280
H1564       H  0.64609444  0.93414753  0.14941224     0.09880
H1565       H  0.62504481  0.88635141  0.02181083     0.07900
Br1566     Br  0.57771225  0.84351675  0.06676028    -0.02700
C1567       C  0.20681110  0.81867692  0.05649202    -0.09340
C1568       C  0.20244917  0.85786216  0.03676737     0.06860
C1569       C  0.21804372  0.89609038  0.04850041    -0.03110
C1570       C  0.23639804  0.89534465  0.07966308    -0.07560
C1571       C  0.23981227  0.85653171  0.09955129     0.05970
C1572       C  0.22391363  0.81841048  0.08861997    -0.02580
Br1573     Br  0.22244430  0.76676564  0.11860181    -0.02280
H1574       H  0.19558083  0.78853591  0.04772421     0.09880
H1575       H  0.24880209  0.92480772  0.08772698     0.07900
Br1576     Br  0.21781022  0.94895381  0.02104544    -0.02700
C1577       C  0.23916838  0.82654077  0.42063808    -0.09340
C1578       C  0.22744911  0.84758958  0.38966002     0.06860
C1579       C  0.20146091  0.87451558  0.39452305    -0.03110
C1580       C  0.19014199  0.88322810  0.43017284    -0.07560
C1581       C  0.20281544  0.86308003  0.46117542     0.05970
C1582       C  0.22652332  0.83249955  0.45551955    -0.02580
Br1583     Br  0.24161049  0.79422375  0.49277244    -0.02280
H1584       H  0.25846238  0.80476327  0.41817506     0.09880
H1585       H  0.17131594  0.90581801  0.43371116     0.07900
Br1586     Br  0.17834629  0.89685047  0.35434809    -0.02700
C1587       C  0.41822627  0.58444459  0.27022336    -0.09340
C1588       C  0.44534152  0.58791904  0.24947538     0.06860
C1589       C  0.45080665  0.62601263  0.22830038    -0.03110
C1590       C  0.42909537  0.65953369  0.22792997    -0.07560
C1591       C  0.40176729  0.65600182  0.24847019     0.05970
C1592       C  0.39631464  0.61758997  0.26954689    -0.02580
Br1593     Br  0.35849564  0.60565678  0.29515496    -0.02280
H1594       H  0.41360545  0.55499632  0.28619752     0.09880
H1595       H  0.43377647  0.68878246  0.21178676     0.07900
Br1596     Br  0.48818953  0.63528151  0.20123607    -0.02700
C1597       C  0.92736852  0.88742377  0.60215445    -0.09340
C1598       C  0.89587077  0.87921892  0.60076122     0.06860
C1599       C  0.87737909  0.89228860  0.63108959    -0.03110
C1600       C  0.89051465  0.91340923  0.66168723    -0.07560
C1601       C  0.92217488  0.92099040  0.66328272     0.05970
C1602       C  0.94055691  0.90767010  0.63294082    -0.02580
Br1603     Br  0.98358804  0.91901047  0.63048373    -0.02280
H1604       H  0.94186980  0.87793249  0.57906358     0.09880
H1605       H  0.87593024  0.92368738  0.68445195     0.07900
Br1606     Br  0.83397165  0.88363688  0.63159841    -0.02700
C1607       C  0.65637582  0.63724459  0.45742551    -0.09340
C1608       C  0.64678514  0.67423451  0.43756649     0.06860
C1609       C  0.66875654  0.70698327  0.42882299    -0.03110
C1610       C  0.69785952  0.70511083  0.44421444    -0.07560
C1611       C  0.70474503  0.67267440  0.47019600     0.05970
C1612       C  0.68456053  0.63701142  0.47473011    -0.02580
Br1613     Br  0.69185039  0.59206136  0.51006507    -0.02280
H1614       H  0.64005523  0.61146087  0.46423516     0.09880
H1615       H  0.71305501  0.73313786  0.44079919     0.07900
Br1616     Br  0.65944378  0.75952687  0.40297884    -0.02700
C1617       C  0.79932705  0.78471707  0.53772047    -0.09340
C1618       C  0.82842071  0.76634186  0.54101274     0.06860
C1619       C  0.83176747  0.72083886  0.53573170    -0.03110
C1620       C  0.80672206  0.69529143  0.52447352    -0.07560
C1621       C  0.77827018  0.71466008  0.51732179     0.05970
C1622       C  0.77471292  0.75995706  0.52467548    -0.02580
Br1623     Br  0.73976250  0.79226057  0.50944497    -0.02280
H1624       H  0.79668914  0.81983502  0.54088164     0.09880
H1625       H  0.81015243  0.66073957  0.51825365     0.07900
Br1626     Br  0.87075690  0.69342322  0.53970317    -0.02700
C1627       C  0.02592667  0.62810779  0.64111691    -0.09340
C1628       C  0.03878297  0.60454986  0.61144635     0.06860
C1629       C  0.03718472  0.55816442  0.61174278    -0.03110
C1630       C  0.02243935  0.53633573  0.64098177    -0.07560
C1631       C  0.00909699  0.55981877  0.67042378     0.05970
C1632       C  0.01160226  0.60619801  0.67071306    -0.02580
Br1633     Br  0.99929479  0.64083578  0.71263705    -0.02280
H1634       H  0.02812339  0.66366958  0.64195553     0.09880
H1635       H  0.02122917  0.50072493  0.64054658     0.07900
Br1636     Br  0.05435564  0.52310047  0.57257764    -0.02700
C1637       C  0.14281282  0.59739711  0.52594784    -0.09340
C1638       C  0.13780087  0.63618671  0.54561128     0.06860
C1639       C  0.16117690  0.66826487  0.54682167    -0.03110
C1640       C  0.18873251  0.66157290  0.52750918    -0.07560
C1641       C  0.19351988  0.62311781  0.50638965     0.05970
C1642       C  0.16966676  0.59110043  0.50566920    -0.02580
Br1643     Br  0.16943939  0.53949546  0.47528463    -0.02280
H1644       H  0.12444278  0.57341725  0.52361472     0.09880
H1645       H  0.20594252  0.68734481  0.52787851     0.07900
Br1646     Br  0.15583225  0.72240437  0.57322623    -0.02700
C1647       C  0.32083691  0.56357832  0.45298941    -0.09340
C1648       C  0.32799723  0.53269975  0.48068913     0.06860
C1649       C  0.30817371  0.53114972  0.51224416    -0.03110
C1650       C  0.28125721  0.55479975  0.51272189    -0.07560
C1651       C  0.27516628  0.58731143  0.48680587     0.05970
C1652       C  0.29541224  0.59173625  0.45639115    -0.02580
Br1653     Br  0.28988605  0.63512485  0.41891557    -0.02280
H1654       H  0.33555864  0.56695751  0.42896222     0.09880
H1655       H  0.26579007  0.54995902  0.53583857     0.07900
Br1656     Br  0.31491894  0.50286927  0.55896924    -0.02700
C1657       C  0.53788207  0.76552931  0.32397395    -0.09340
C1658       C  0.50725967  0.75260252  0.32080608     0.06860
C1659       C  0.49685924  0.71632376  0.34184317    -0.03110
C1660       C  0.51651955  0.69631637  0.36698956    -0.07560
C1661       C  0.54673508  0.71171545  0.37248687     0.05970
C1662       C  0.55750093  0.74575306  0.34874740    -0.02580
Br1663     Br  0.59792695  0.76981375  0.34709366    -0.02280
H1664       H  0.54689299  0.79203085  0.30700193     0.09880
H1665       H  0.50768076  0.66870134  0.38266919     0.07900
Br1666     Br  0.45593373  0.69345583  0.33917567    -0.02700
C1667       C  0.37853675  0.88158700  0.38799239    -0.09340
C1668       C  0.38523144  0.92559252  0.39697076     0.06860
C1669       C  0.40354413  0.95048724  0.37224544    -0.03110
C1670       C  0.41602583  0.93052941  0.34054806    -0.07560
C1671       C  0.41065998  0.88576535  0.33253343     0.05970
C1672       C  0.39101101  0.86149587  0.35646705    -0.02580
Br1673     Br  0.38205768  0.79978922  0.35037347    -0.02280
H1674       H  0.36429498  0.86208180  0.40644748     0.09880
H1675       H  0.43071645  0.94997461  0.32256072     0.07900
Br1676     Br  0.41455596  0.51077254  0.38170577    -0.02700
C1677       C  0.91865250  0.88002347  0.89185162    -0.09340
C1678       C  0.88777264  0.88801823  0.89894276     0.06860
C1679       C  0.87096309  0.91200940  0.87329918    -0.03110
C1680       C  0.88544360  0.92843385  0.84137688    -0.07560
C1681       C  0.91680271  0.92144813  0.83441015     0.05970
C1682       C  0.93329233  0.89650205  0.86026042    -0.02580
Br1683     Br  0.97638025  0.88689086  0.85710527    -0.02280
H1684       H  0.93173868  0.86184302  0.91172303     0.09880
H1685       H  0.87220543  0.94757716  0.82233820     0.07900
Br1686     Br  0.82863631  0.92471340  0.88179422    -0.02700
C1687       C  0.52853224  0.73243776  0.17329737    -0.09340
C1688       C  0.50435645  0.76004046  0.16417201     0.06860
C1689       C  0.49420767  0.76113433  0.12768798    -0.03110
C1690       C  0.50850555  0.73525095  0.10073043    -0.07560
C1691       C  0.53269293  0.70723898  0.10955476     0.05970
C1692       C  0.54249740  0.70563951  0.14649708    -0.02580
Br1693     Br  0.57269442  0.66493344  0.16282915    -0.02280
H1694       H  0.53577770  0.73047366  0.20165992     0.09880
H1695       H  0.50092781  0.73752177  0.07252762     0.07900
Br1696     Br  0.46113133  0.79801806  0.11339945    -0.02700
C1697       C  0.64204544  0.64817132  0.00855014    -0.09340
C1698       C  0.62879488  0.67763522  0.03431330     0.06860
C1699       C  0.64879020  0.70798153  0.05177612    -0.03110
C1700       C  0.67998199  0.70810495  0.04267361    -0.07560
C1701       C  0.69203220  0.68187445  0.01408204     0.05970
C1702       C  0.67259734  0.65076424  0.99787313    -0.02580
Br1703     Br  0.68502038  0.61479947  0.95713682    -0.02280
H1704       H  0.62862330  0.62398299  0.99431764     0.09880
H1705       H  0.69352809  0.73448666  0.05387384     0.07900
Br1706     Br  0.63608407  0.75731508  0.08154149    -0.02700
C1707       C  0.79410606  0.71553450  0.96255339    -0.09340
C1708       C  0.77213973  0.72558390  0.98997773     0.06860
C1709       C  0.77313960  0.76731076  0.00667130    -0.03110
C1710       C  0.79594987  0.79712004  0.99717738    -0.07560
C1711       C  0.81994124  0.78576979  0.97293643     0.05970
C1712       C  0.81847417  0.74466009  0.95467442    -0.02580
Br1713     Br  0.84986129  0.72485867  0.92131207    -0.02280
H1714       H  0.79286333  0.68482088  0.94763275     0.09880
H1715       H  0.79551065  0.82915432  0.01037417     0.07900
Br1716     Br  0.74510452  0.78532886  0.04445656    -0.02700
C1717       C  0.04601622  0.60644049  0.85407534    -0.09340
C1718       C  0.03460161  0.60615810  0.89064704     0.06860
C1719       C  0.00726160  0.58231945  0.89803342    -0.03110
C1720       C  0.99209537  0.56028559  0.86924944    -0.07560
C1721       C  0.00428594  0.55979573  0.83321845     0.05970
C1722       C  0.03163068  0.58283139  0.82591712    -0.02580
Br1723     Br  0.05049514  0.58249789  0.77786563    -0.02280
H1724       H  0.06681142  0.62440615  0.84738764     0.09880
H1725       H  0.97134595  0.54189817  0.87533450     0.07900
Br1726     Br  0.99113552  0.57447490  0.94703998    -0.02700
C1727       C  0.14422109  0.59352133  0.96426952    -0.09340
C1728       C  0.13719620  0.63235501  0.94605337     0.06860
C1729       C  0.15979890  0.66530042  0.94226513    -0.03110
C1730       C  0.18720376  0.66186493  0.96128442    -0.07560
C1731       C  0.19259370  0.62549791  0.98399277     0.05970
C1732       C  0.17113878  0.59029647  0.98400817    -0.02580
Br1733     Br  0.17160918  0.54402263  0.01920130    -0.02280
H1734       H  0.12666150  0.56849444  0.96805113     0.09880
H1735       H  0.20244763  0.69002053  0.96172622     0.07900
Br1736     Br  0.15281951  0.71771748  0.91490628    -0.02700
C1737       C  0.36988611  0.92188175  0.13395644    -0.09340
C1738       C  0.38811014  0.93469003  0.10360986     0.06860
C1739       C  0.41991744  0.92893569  0.10493486    -0.03110
C1740       C  0.43290375  0.90962240  0.13588401    -0.07560
C1741       C  0.41456423  0.89501367  0.16557073     0.05970
C1742       C  0.38284535  0.90208696  0.16474744    -0.02580
Br1743     Br  0.35661054  0.88750319  0.20575273    -0.02280
H1744       H  0.34542643  0.92671337  0.13344549     0.09880
H1745       H  0.45736911  0.90482767  0.13628033     0.07900
Br1746     Br  0.44648767  0.94746705  0.06535579    -0.02700
C1747       C  0.28967825  0.53544402  0.06235009    -0.09340
C1748       C  0.31858186  0.54421169  0.04707113     0.06860
C1749       C  0.32381949  0.58463509  0.02955469    -0.03110
C1750       C  0.29940258  0.61298722  0.02367530    -0.07560
C1751       C  0.26895081  0.60047164  0.03256281     0.05970
C1752       C  0.26495265  0.56315680  0.05566892    -0.02580
Br1753     Br  0.22750726  0.54603930  0.07904761    -0.02280
H1754       H  0.28577169  0.50496778  0.07719444     0.09880
H1755       H  0.30383018  0.64256762  0.00784162     0.07900
Br1756     Br  0.36316550  0.60004660  0.00945472    -0.02700
C1757       C  0.78877827  0.62692951  0.41098164    -0.09340
C1758       C  0.79736767  0.66184979  0.38791449     0.06860
C1759       C  0.79039821  0.70535678  0.39840135    -0.03110
C1760       C  0.77641677  0.71343179  0.43239501    -0.07560
C1761       C  0.76906711  0.67878036  0.45632097     0.05970
C1762       C  0.77514474  0.63512022  0.44539725    -0.02580
Br1763     Br  0.76820394  0.58621340  0.47759995    -0.02280
H1764       H  0.79411987  0.59342307  0.40300950     0.09880
H1765       H  0.77161692  0.74709121  0.44047711     0.07900
Br1766     Br  0.79903037  0.75499950  0.36727611    -0.02700
C1767       C  0.74981532  0.67767987  0.07127490    -0.09340
C1768       C  0.75858922  0.66533840  0.03531818     0.06860
C1769       C  0.78219287  0.63397369  0.03127958    -0.03110
C1770       C  0.79873786  0.62068120  0.06200712    -0.07560
C1771       C  0.79149722  0.63668905  0.09725511     0.05970
C1772       C  0.76570451  0.66349151  0.10200204    -0.02580
Br1773     Br  0.75349998  0.68712421  0.14908704    -0.02280
H1774       H  0.73241554  0.70162704  0.07598405     0.09880
H1775       H  0.81808796  0.59905692  0.05817546     0.07900
Br1776     Br  0.79338151  0.60803364  0.98481648    -0.02700
C1777       C  0.18797308  0.64140467  0.39338175    -0.09340
C1778       C  0.18624846  0.59889821  0.37841235     0.06860
C1779       C  0.20528913  0.56586811  0.39233376    -0.03110
C1780       C  0.22151867  0.57387341  0.42467509    -0.07560
C1781       C  0.21813434  0.61403170  0.44340638     0.05970
C1782       C  0.20419183  0.64920301  0.42536269    -0.02580
Br1783     Br  0.20590039  0.70808629  0.44409395    -0.02280
H1784       H  0.17507165  0.66809257  0.38171939     0.09880
H1785       H  0.23389439  0.54732479  0.43714349     0.07900
Br1786     Br  0.20922679  0.50936485  0.36921764    -0.02700
C1787       C  0.19665251  0.64675790  0.11871871    -0.09340
C1788       C  0.16481207  0.64187298  0.11661079     0.06860
C1789       C  0.15066335  0.64815019  0.08295620    -0.03110
C1790       C  0.16842492  0.65255460  0.05155682    -0.07560
C1791       C  0.20033135  0.64482453  0.05162624     0.05970
C1792       C  0.21466199  0.64980343  0.08631222    -0.02580
Br1793     Br  0.25646227  0.66715039  0.09260935    -0.02280
H1794       H  0.20755265  0.64654660  0.14530948     0.09880
H1795       H  0.15598140  0.65820794  0.02665805     0.07900
Br1796     Br  0.10704218  0.64743658  0.07728336    -0.02700
C1797       C  0.01315966  0.86022916  0.26257251    -0.09340
C1798       C  0.00844536  0.89589649  0.23889171     0.06860
C1799       C  0.98473761  0.89275891  0.21291663    -0.03110
C1800       C  0.96642815  0.85477069  0.21139685    -0.07560
C1801       C  0.97096429  0.81947304  0.23544510     0.05970
C1802       C  0.99494646  0.82225279  0.26093578    -0.02580
Br1803     Br  0.00556352  0.77436150  0.29257768    -0.02280
H1804       H  0.03160475  0.86141546  0.28209244     0.09880
H1805       H  0.94789381  0.85340285  0.19198905     0.07900
Br1806     Br  0.97435298  0.93979076  0.18042978    -0.02700
C1807       C  0.68329289  0.72359655  0.53289893    -0.09340
C1808       C  0.71028110  0.69894066  0.53577650     0.06860
C1809       C  0.71879202  0.68472779  0.57109869    -0.03110
C1810       C  0.70094795  0.69599042  0.60202758    -0.07560
C1811       C  0.67389140  0.72012151  0.59864305     0.05970
C1812       C  0.66485170  0.73316187  0.56328414    -0.02580
Br1813     Br  0.62628023  0.75979177  0.55283067    -0.02280
H1814       H  0.67573517  0.73498525  0.50644889     0.09880
H1815       H  0.70818941  0.68524601  0.62889653     0.07900
Br1816     Br  0.75252859  0.64683829  0.57928807    -0.02700
C1817       C  0.67594539  0.75903122  0.91992406    -0.09340
C1818       C  0.68438931  0.73543472  0.88803670     0.06860
C1819       C  0.70973348  0.70685333  0.89014807    -0.03110
C1820       C  0.72307275  0.69896083  0.92434347    -0.07560
C1821       C  0.71215078  0.71931754  0.95674217     0.05970
C1822       C  0.68978772  0.75216382  0.95352111    -0.02580
Br1823     Br  0.67667161  0.79045836  0.99263300    -0.02280
H1824       H  0.65758031  0.78245875  0.91962869     0.09880
H1825       H  0.74057159  0.67411311  0.92602237     0.07900
Br1826     Br  0.72816194  0.67749521  0.84864928    -0.02700
C1827       C  0.24395340  0.61941944  0.56693122    -0.09340
C1828       C  0.25656138  0.63935927  0.53519112     0.06860
C1829       C  0.28030235  0.67053553  0.53919455    -0.03110
C1830       C  0.29343153  0.67724941  0.57353834    -0.07560
C1831       C  0.28279137  0.65389739  0.60428513     0.05970
C1832       C  0.25693058  0.62642596  0.60134297    -0.02580
Br1833     Br  0.24136294  0.59257727  0.64208589    -0.02280
H1834       H  0.22608007  0.59478208  0.56447393     0.09880
H1835       H  0.31306961  0.69897525  0.57587825     0.07900
Br1836     Br  0.29734209  0.70222174  0.49821642    -0.02700
C1837       C  0.27533708  0.58834017  0.91253414    -0.09340
C1838       C  0.28146892  0.63021467  0.89817781     0.06860
C1839       C  0.27332303  0.66794638  0.91839970    -0.03110
C1840       C  0.26057709  0.66313639  0.95358443    -0.07560
C1841       C  0.25485518  0.62114634  0.96832547     0.05970
C1842       C  0.26191118  0.58354407  0.94723892    -0.02580
Br1843     Br  0.25475576  0.52509148  0.96465045    -0.02280
H1844       H  0.28161406  0.55919575  0.89690927     0.09880
H1845       H  0.25595522  0.69219790  0.97008212     0.07900
Br1846     Br  0.28160665  0.72630456  0.90057690    -0.02700
C1847       C  0.46830951  0.96228019  0.75530201    -0.09340
C1848       C  0.47466820  0.00645130  0.74723732     0.06860
C1849       C  0.50488206  0.02016654  0.74001275    -0.03110
C1850       C  0.52838759  0.98927868  0.74042129    -0.07560
C1851       C  0.52196114  0.94500653  0.74838580     0.05970
C1852       C  0.49172255  0.93153239  0.75577916    -0.02580
Br1853     Br  0.48121902  0.87123904  0.76496726    -0.02280
H1854       H  0.44502196  0.95163769  0.76080486     0.09880
H1855       H  0.55167682  0.99982334  0.73489498     0.07900
Br1856     Br  0.51494659  0.58082712  0.73106284    -0.02700
loop_ 
_geom_bond_atom_site_label_1 
_geom_bond_atom_site_label_2 
_geom_bond_distance 
_geom_bond_site_symmetry_2 
_ccdc_geom_bond_type 
N1            N2   1.324       .  A
N1            C5   1.343       .  A
N1           Cu9   2.079       .  S
N2            C3   1.343       .  A
N2           Cu8   2.051       .  S
C3            C4   1.376       .  A
C3            H6   1.082       .  S
C4            C5   1.381       .  A
C4          C903   1.462       .  S
C5            H7   1.082       .  S
Cu8          N11   2.050       .  S
Cu9          N19   2.078       .  S
Cu10         N12   2.040       .  S
Cu10         N18   2.040       .  S
N11          N12   1.320       .  A
N11          C15   1.343       .  A
N12          C13   1.337       .  A
C13          C14   1.375       .  A
C13          H16   1.082       .  S
C14          C15   1.380       .  A
C14         C910   1.457       .  S
C15          H17   1.082       .  S
N18          N19   1.320       .  A
N18          C22   1.340       .  A
N19          C20   1.346       .  A
C20          C21   1.382       .  A
C20          H23   1.081       .  S
C21          C22   1.375       .  A
C21        C1848   1.461       .  S
C22          H24   1.082       .  S
N25          N26   1.322       .  A
N25          C29   1.339       .  A
N25         Cu33   2.062       .  S
N26          C27   1.344       .  A
N26         Cu32   2.069       .  S
C27          C28   1.386       .  A
C27          H30   1.082       .  S
C28          C29   1.383       .  A
C28         C883   1.480       .  S
C29          H31   1.080       .  S
Cu32         N35   2.068       .  S
Cu33         N43   2.060       .  S
Cu34         N36   2.056       .  S
Cu34         N42   2.055       .  S
N35          N36   1.318       .  A
N35          C39   1.346       .  A
N36          C37   1.335       .  A
C37          C38   1.389       .  A
C37          H40   1.080       .  S
C38          C39   1.393       .  A
C38         C890   1.494       .  S
C39          H41   1.078       .  S
N42          N43   1.319       .  A
N42          C46   1.343       .  A
N43          C44   1.344       .  A
C44          C45   1.380       .  A
C44          H47   1.082       .  S
C45          C46   1.381       .  A
C45         C923   1.465       .  S
C46          H48   1.082       .  S
N49          N50   1.320       .  A
N49          C53   1.338       .  A
N49         Cu57   2.066       .  S
N50          C51   1.344       .  A
N50         Cu56   2.034       .  S
C51          C52   1.375       .  A
C51          H54   1.082       .  S
C52          C53   1.382       .  A
C52         C860   1.460       .  S
C53          H55   1.083       .  S
Cu56         N59   2.034       .  S
Cu57         N67   2.066   1_545  S
Cu58         N60   2.084       .  S
Cu58        N994   2.084   1_545  S
N59          N60   1.322       .  A
N59          C63   1.337       .  A
N60          C61   1.347       .  A
C61          C62   1.388       .  A
C61          H64   1.082       .  S
C62          C63   1.376       .  A
C62         C850   1.471       .  S
C63          H65   1.083       .  S
N66         N995   1.321       .  A
N66          C70   1.346       .  A
N66        Cu986   2.084       .  S
N67         N994   1.321       .  A
N67         C996   1.344       .  A
C68         N995   1.344       .  A
C68          C69   1.386       .  A
C68          H71   1.081       .  S
C69          C70   1.390       .  A
C69         C870   1.487       .  S
C70          H72   1.082       .  S
N73          N74   1.321       .  A
N73          C77   1.339       .  A
N73         Cu81   2.050       .  S
N74          C75   1.347       .  A
N74         Cu80   2.071       .  S
C75          C76   1.383       .  A
C75          H78   1.082       .  S
C76          C77   1.377       .  A
C76         C830   1.466       .  S
C77          H79   1.082       .  S
Cu80         N83   2.073       .  S
Cu81         N91   2.052       .  S
Cu82         N84   2.089       .  S
Cu82         N90   2.088       .  S
N83          N84   1.324       .  A
N83          C87   1.346       .  A
N84          C85   1.345       .  A
C85          C86   1.384       .  A
C85          H88   1.082       .  S
C86          C87   1.383       .  A
C86         C843   1.475       .  S
C87          H89   1.082       .  S
N90          N91   1.320       .  A
N90          C94   1.348       .  A
N91          C92   1.341       .  A
C92          C93   1.382       .  A
C92          H95   1.082       .  S
C93          C94   1.391       .  A
C93         C873   1.482       .  S
C94          H96   1.082       .  S
C97          C98   1.410       .  A
C97        C1030   1.407       .  A
C97         C810   1.481       .  S
C98          C99   1.404       .  A
C98         H103   1.084       .  S
C99        C1028   1.405       .  A
C99         C332   1.484   1_554  S
C100        C101   1.402   1_565  A
C100       C1027   1.405       .  A
C100        H104   1.085   1_554  S
C101        C102   1.401   1_545  A
C101        C820   1.479       .  S
C102       C1025   1.407       .  A
C102        H105   1.084   1_565  S
C106        C107   1.377       .  D
C106        C823   1.516       .  S
C106        C913   1.490   1_554  S
C107        C803   1.511   1_554  S
C107        C863   1.526       .  S
C108        C109   1.412       .  A
C108        C113   1.424       .  A
C108        C790   1.504       .  S
C109        C110   1.396       .  A
C109        H114   1.084       .  S
C110        C111   1.395       .  A
C110        C800   1.475       .  S
C111        C112   1.401       .  A
C111        H115   1.085       .  S
C112        C113   1.416       .  A
C112        C323   1.494   1_556  S
C113        H116   1.081       .  S
C117        C118   1.370   1_556  D
C117        C773   1.495   1_556  S
C117        C893   1.499       .  S
C118        C780   1.494   1_554  S
C118        C840   1.503       .  S
C119        C120   1.410       .  A
C119        C124   1.409       .  A
C119        C763   1.487       .  S
C120        C121   1.398       .  A
C120        H125   1.083       .  S
C121        C122   1.400       .  A
C121        C345   1.479   1_554  S
C122        C123   1.407       .  A
C122        H126   1.081   1_554  S
C123        C124   1.408       .  A
C123        C770   1.511       .  S
C124        H127   1.072       .  S
C128        C129   1.408       .  A
C128        C133   1.410       .  A
C128        C750   1.477       .  S
C129        C130   1.407       .  A
C129        H134   1.082       .  S
C130        C131   1.405   1_556  A
C130        C783   1.491       .  S
C131        C132   1.396       .  A
C131        H135   1.085       .  S
C132        C133   1.402   1_554  A
C132        C354   1.479       .  S
C133        H136   1.084       .  S
O137       Cu145   2.003       .  S
O137        C147   1.276       .  A
O138       Cu145   1.995       .  S
O138        C148   1.278       .  A
O139       Cu145   2.022       .  S
O139        C149   1.279       .  A
O140       Cu145   2.030       .  S
O140        C150   1.281       .  A
O141       Cu146   2.003       .  S
O141        C150   1.276       .  A
O142       Cu146   1.997       .  S
O142        C149   1.275       .  A
O143       Cu146   2.032       .  S
O143        C148   1.279       .  A
O144       Cu146   2.024       .  S
O144        C147   1.280       .  A
Cu145      Cu146   2.369       .  S
C147        C813   1.479       .  S
C148        C730   1.493       .  S
C149        C760   1.468       .  S
C150        C743   1.493       .  S
C151        C156   1.410       .  A
C151       C1080   1.414       .  A
C151        C740   1.492       .  S
C152        C153   1.418       .  A
C152       C1079   1.414       .  A
C152        H157   1.082       .  S
C153        C154   1.406       .  A
C153        C720   1.515   1_565  S
C154       C1083   1.400       .  A
C154        H158   1.074       .  S
C155        C156   1.399       .  A
C155       C1082   1.400       .  A
C155        C303   1.482       .  S
C156        H159   1.084       .  S
C160        C161   1.417       .  A
C160        C165   1.410       .  A
C160        C700   1.484       .  S
C161        C162   1.409       .  A
C161        H166   1.083       .  S
C162        C163   1.399       .  A
C162        C314   1.486       .  S
C163        C164   1.389       .  A
C163        H167   1.081       .  S
C164        C165   1.400       .  A
C164        C710   1.475       .  S
C165        H168   1.084       .  S
C169        C170   1.364       .  D
C169        C723   1.503       .  S
C169        C900   1.493       .  S
C170        C713   1.509       .  S
C170        C853   1.480       .  S
C171        C172   1.367       .  D
C171        C683   1.495       .  S
C171        C880   1.505       .  S
C172        C693   1.495       .  S
C172        C833   1.483       .  S
C173        C174   1.424       .  A
C173        C178   1.424       .  A
C173        C733   1.516       .  S
C174        C175   1.410       .  A
C174        H179   1.078       .  S
C175        C176   1.398       .  A
C175        C680   1.494       .  S
C176        C177   1.390       .  A
C176        H180   1.086       .  S
C177        C178   1.401       .  A
C177        C386   1.481       .  S
C178        H181   1.080       .  S
C182        C183   1.411       .  A
C182        C187   1.416       .  A
C182        C670   1.493       .  S
C183        C184   1.403       .  A
C183        H188   1.083       .  S
C184        C185   1.401       .  A
C184        C690   1.482       .  S
C185        C186   1.405       .  A
C185        H189   1.086       .  S
C186        C187   1.411       .  A
C186        C377   1.494       .  S
C187        H190   1.084       .  S
O191       Cu199   2.028       .  S
O191        C201   1.279       .  A
O192      Cu1127   2.038       .  S
O192        C202   1.281       .  A
O193      Cu1127   2.019       .  S
O193        C203   1.279       .  A
O194       Cu199   2.026       .  S
O194        C204   1.280       .  A
O195       Cu200   2.015   1_455  S
O195       C1132   1.278   1_455  A
O196       Cu200   2.022       .  S
O196        C203   1.279       .  A
O197       Cu200   2.024       .  S
O197        C202   1.279       .  A
O198       Cu200   2.026   1_455  S
O198       C1129   1.280   1_455  A
Cu199      O1120   2.038   1_545  S
Cu199      O1121   2.019   1_545  S
Cu199     Cu1128   2.368   1_545  S
Cu200     Cu1127   2.368       .  S
C201        C793   1.483   1_655  S
C201       O1126   1.280   1_645  A
C202        C673   1.493       .  S
C203        C753   1.494       .  S
C204        C703   1.485   1_655  S
C204       O1123   1.278   1_645  A
N205        N206   1.318       .  A
N205        C209   1.336       .  A
N205       Cu213   2.057       .  S
N206        C207   1.347       .  A
N206       Cu212   2.067       .  S
C207        C208   1.391       .  A
C207        H210   1.080       .  S
C208        C209   1.388       .  A
C208        C650   1.488       .  S
C209        H211   1.081       .  S
Cu212       N215   2.069       .  S
Cu213       N223   2.057       .  S
Cu214       N216   2.079       .  S
Cu214       N222   2.077       .  S
N215        N216   1.325       .  A
N215        C219   1.345       .  A
N216        C217   1.343       .  A
C217        C218   1.381       .  A
C217        H220   1.082       .  S
C218        C219   1.379       .  A
C218        C643   1.469       .  S
C219        H221   1.082       .  S
N222        N223   1.319       .  A
N222        C226   1.346       .  A
N223        C224   1.342       .  A
C224        C225   1.384       .  A
C224        H227   1.081       .  S
C225        C226   1.389       .  A
C225        C663   1.483       .  S
C226        H228   1.082       .  S
N229        N230   1.321       .  A
N229        C233   1.342       .  A
N229       Cu237   2.067       .  S
N230        C231   1.345       .  A
N230       Cu236   2.068       .  S
C231        C232   1.382       .  A
C231        H234   1.082       .  S
C232        C233   1.381       .  A
C232        C620   1.466       .  S
C233        H235   1.082       .  S
Cu236       N239   2.068       .  S
Cu237       N247   2.068       .  S
Cu238       N240   2.074       .  S
Cu238       N246   2.075       .  S
N239        N240   1.322       .  A
N239        C243   1.345       .  A
N240        C241   1.343       .  A
C241        C242   1.383       .  A
C241        H244   1.083       .  S
C242        C243   1.382       .  A
C242        C630   1.469       .  S
C243        H245   1.082       .  S
N246        N247   1.321       .  A
N246       C1178   1.346       .  A
N247       C1176   1.344       .  A
C248       N1175   1.344   1_545  A
C248        C249   1.383       .  A
C248        H251   1.082       .  S
C249        C250   1.385       .  A
C249        C660   1.477       .  S
C250       N1174   1.346   1_545  A
C250        H252   1.082       .  S
N253        N254   1.319       .  A
N253        C257   1.341       .  A
N253       Cu261   2.053       .  S
N254        C255   1.342       .  A
N254       Cu260   2.055       .  S
C255        C256   1.383       .  A
C255        H258   1.082       .  S
C256        C257   1.380       .  A
C256        C593   1.471       .  S
C257        H259   1.081       .  S
Cu260       N263   2.055       .  S
Cu261       N271   2.053   1_455  S
Cu262       N264   2.069       .  S
Cu262       N270   2.069   1_455  S
N263        N264   1.323       .  A
N263        C267   1.343       .  A
N264        C265   1.341       .  A
C265        C266   1.380       .  A
C265        H268   1.082       .  S
C266        C267   1.378       .  A
C266        C600   1.467       .  S
C267        H269   1.082       .  S
N270        N271   1.319       .  A
N270        C274   1.346       .  A
N271        C272   1.340       .  A
C272        C273   1.383       .  A
C272        H275   1.082       .  S
C273        C274   1.388       .  A
C273        C610   1.480       .  S
C274        H276   1.082       .  S
N277        N278   1.322       .  A
N277        C281   1.344       .  A
N277      Cu1213   2.076       .  S
N278        C279   1.340       .  A
N278       Cu284   2.040       .  S
C279        C280   1.374       .  A
C279        H282   1.082       .  S
C280        C281   1.382       .  A
C280        C583   1.459       .  S
C281        H283   1.082       .  S
Cu284       N287   2.040       .  S
Cu285       N295   2.075       .  S
Cu285      N1205   2.076   1_545  S
Cu286       N294   2.065       .  S
Cu286      N1216   2.061   1_545  S
N287        N288   1.317       .  A
N287        C291   1.340       .  A
N288        C289   1.340       .  A
N288      Cu1214   2.061       .  S
C289        C290   1.388       .  A
C289        H292   1.077       .  S
C290        C291   1.384       .  A
C290        C570   1.483       .  S
C291        H293   1.081       .  S
N294        N295   1.320       .  A
N294        C298   1.343       .  A
N295        C296   1.343       .  A
C296        C297   1.391       .  A
C296        H299   1.081       .  S
C297        C298   1.388       .  A
C297        C613   1.492       .  S
C298        H300   1.078       .  S
C301        C302   1.411       .  A
C301        C306   1.410       .  A
C301        C550   1.479       .  S
C302        C303   1.401       .  A
C302        H307   1.083       .  S
C303        C304   1.399       .  A
C304        C305   1.408       .  A
C304       H1236   1.084       .  S
C305        C306   1.406       .  A
C305        C560   1.504       .  S
C306        H309   1.079       .  S
H308       C1232   1.084       .  S
C310        C311   1.364       .  D
C310        C540   1.499       .  S
C310        C603   1.494       .  S
C311        C563   1.490       .  S
C311        C653   1.501       .  S
C312        C313   1.414       .  A
C312        C317   1.406       .  A
C312        C533   1.483       .  S
C313        C314   1.410       .  A
C313        H318   1.084       .  S
C314        C315   1.401       .  A
C315        C316   1.399       .  A
C315        H319   1.086       .  S
C316        C317   1.399       .  A
C316        C543   1.473       .  S
C317        H320   1.084       .  S
C321        C322   1.418       .  A
C321        C326   1.407       .  A
C321        C513   1.491       .  S
C322        C323   1.413       .  A
C322        H327   1.084       .  S
C323        C324   1.406       .  A
C324        C325   1.402       .  A
C324        H328   1.085   1_554  S
C325        C326   1.400       .  A
C325        C523   1.480       .  S
C326        H329   1.084       .  S
C330        C331   1.420       .  A
C330        C335   1.409       .  A
C330        C493   1.498       .  S
C331        C332   1.414       .  A
C331        H336   1.082       .  S
C332        C333   1.400       .  A
C333        C334   1.390       .  A
C333       H1265   1.085       .  S
C334        C335   1.396       .  A
C334        C500   1.468       .  S
C335        H338   1.084       .  S
H337       C1261   1.085       .  S
C339        C340   1.386   1_554  D
C339        C503   1.523   1_554  S
C339        C640   1.501       .  S
C340        C520   1.537   1_556  S
C340        C590   1.486       .  S
C341        C342   1.367       .  D
C341        C470   1.495       .  S
C341        C580   1.503   1_554  S
C342        C480   1.500       .  S
C342        C633   1.498       .  S
C343        C344   1.409       .  A
C343        C348   1.419       .  A
C343        C460   1.491       .  S
C344        C345   1.395       .  A
C344        H349   1.085       .  S
C345        C346   1.397       .  A
C346        C347   1.410       .  A
C346        H350   1.085   1_556  S
C347        C348   1.417       .  A
C347        C483   1.507       .  S
C348        H351   1.082       .  S
C352        C353   1.414       .  A
C352        C357   1.406       .  A
C352        C453   1.473       .  S
C353        C354   1.405       .  A
C353        H358   1.083       .  S
C354        C355   1.401       .  A
C355        C356   1.393       .  A
C355        H359   1.085       .  S
C356        C357   1.393       .  A
C356        C473   1.468       .  S
C357        H360   1.084       .  S
O361       Cu369   2.016       .  S
O361        C371   1.278       .  A
O362       Cu369   2.005       .  S
O362        C372   1.276       .  A
O363       Cu369   2.028       .  S
O363        C373   1.281       .  A
O364       Cu369   2.029       .  S
O364        C374   1.279       .  A
O365       Cu370   2.021       .  S
O365        C374   1.279       .  A
O366       Cu370   2.020       .  S
O366        C373   1.279       .  A
O367       Cu370   2.003       .  S
O367        C372   1.276       .  A
O368       Cu370   2.006       .  S
O368        C371   1.278       .  A
Cu369      Cu370   2.371       .  S
C371        C530   1.481       .  S
C372        C450   1.464       .  S
C373        C440   1.494       .  S
C374        C510   1.487       .  S
C375        C376   1.421       .  A
C375        C380   1.419       .  A
C375        C443   1.495       .  S
C376        C377   1.407       .  A
C376        H381   1.082       .  S
C377        C378   1.396       .  A
C378        C379   1.393       .  A
C378        H382   1.082       .  S
C379        C380   1.407       .  A
C379        C430   1.497       .  S
C380        H383   1.083       .  S
C384        C385   1.412       .  A
C384        C389   1.406       .  A
C384        C410   1.479       .  S
C385        C386   1.406       .  A
C385        H390   1.084       .  S
C386        C387   1.405       .  A
C387        C388   1.396       .  A
C387        H391   1.086       .  S
C388        C389   1.402       .  A
C388        C420   1.476       .  S
C389        H392   1.084       .  S
C393        C394   1.377       .  D
C393        C423   1.556       .  S
C393        C623   1.477       .  S
C394        C433   1.555       .  S
C394        C573   1.475       .  S
O395       Cu403   2.019       .  S
O395        C405   1.278       .  A
O396       Cu403   2.022       .  S
O396        C406   1.278       .  A
O397       Cu403   2.024       .  S
O397        C407   1.280       .  A
O398       Cu403   2.031       .  S
O398        C408   1.281       .  A
O399       Cu404   2.012       .  S
O399        C408   1.277       .  A
O400       Cu404   2.013       .  S
O400        C407   1.277       .  A
O401       Cu404   2.026       .  S
O401        C406   1.279       .  A
O402       Cu404   2.022       .  S
O402        C405   1.280       .  A
Cu403      Cu404   2.362       .  S
C405        C413   1.494       .  S
C406        C490   1.497       .  S
C407        C553   1.489       .  S
C408        C463   1.498       .  S
C409        C410   1.398       .  A
C409        C414   1.401       .  A
C409        H416   1.084       .  S
C410        C411   1.406       .  A
C411        C412   1.402       .  A
C411       Br418   1.916       .  S
C412        C413   1.409       .  A
C412        H417   1.083       .  S
C413        C414   1.420       .  A
C414       Br415   1.916       .  S
C419        C420   1.391       .  A
C419       C1352   1.399       .  A
C419        H426   1.086       .  S
C420       C1349   1.397   1_545  A
C421        C422   1.401       .  A
C421       C1348   1.397       .  A
C421       Br428   1.916       .  S
C422        C423   1.425       .  A
C422        H427   1.080       .  S
C423        C424   1.437       .  A
C424       C1347   1.399       .  A
C424       Br425   1.918       .  S
C429        C430   1.401       .  A
C429        C434   1.417       .  A
C429        H436   1.083       .  S
C430        C431   1.406       .  A
C431        C432   1.386       .  A
C431       Br438   1.931       .  S
C432        C433   1.413       .  A
C432        H437   1.079       .  S
C433        C434   1.436       .  A
C434       Br435   1.909       .  S
C439        C440   1.408       .  A
C439       C1372   1.405       .  A
C439        H446   1.084       .  S
C440       C1369   1.416   1_545  A
C441        C442   1.404       .  A
C441       C1368   1.416       .  A
C441       Br448   1.923       .  S
C442        C443   1.405       .  A
C442        H447   1.084       .  S
C443        C444   1.412       .  A
C444       C1367   1.405       .  A
C444      Br1373   1.918       .  S
Br445      C1372   1.918       .  S
C449        C450   1.402       .  A
C449       C1382   1.399       .  A
C449        H456   1.084       .  S
C450       C1379   1.404   1_545  A
C451        C452   1.397       .  A
C451       C1378   1.404       .  A
C451       Br458   1.917       .  S
C452        C453   1.404       .  A
C452        H457   1.084       .  S
C453        C454   1.408       .  A
C454       C1377   1.399       .  A
C454      Br1383   1.919       .  S
Br455      C1382   1.919       .  S
C459        C460   1.404       .  A
C459        C464   1.400       .  A
C459        H466   1.084       .  S
C460        C461   1.409       .  A
C461        C462   1.407       .  A
C461       Br468   1.918       .  S
C462        C463   1.411       .  A
C462        H467   1.082       .  S
C463        C464   1.419       .  A
C464       Br465   1.925       .  S
C469        C470   1.409       .  A
C469        C474   1.406       .  A
C469        H476   1.083       .  S
C470        C471   1.415       .  A
C471        C472   1.389       .  A
C471       Br478   1.904       .  S
C472        C473   1.390       .  A
C472        H477   1.084       .  S
C473        C474   1.406       .  A
C474       Br475   1.914       .  S
C479        C480   1.414   1_556  A
C479        C484   1.419       .  A
C479        H486   1.083       .  S
C480        C481   1.403       .  A
C481       C1410   1.384       .  A
C481       Br488   1.911       .  S
C482        C483   1.404   1_554  A
C482       C1409   1.384       .  A
C482        H487   1.079       .  S
C483       C1412   1.415   1_545  A
C484       C1411   1.415       .  A
C484       Br485   1.915       .  S
C489        C490   1.411       .  A
C489        C494   1.407       .  A
C489        H496   1.083       .  S
C490        C491   1.415       .  A
C491        C492   1.400       .  A
C491       Br498   1.920       .  S
C492        C493   1.407       .  A
C492        H497   1.084       .  S
C493        C494   1.413       .  A
C494       Br495   1.920       .  S
C499        C500   1.396       .  A
C499        C504   1.397       .  A
C499        H506   1.084       .  S
C500        C501   1.404       .  A
C501        C502   1.399       .  A
C501       Br508   1.919       .  S
C502        C503   1.412       .  A
C502        H507   1.081       .  S
C503        C504   1.415       .  A
C504       Br505   1.914       .  S
C509        C510   1.408       .  A
C509        C514   1.406       .  A
C509        H516   1.083       .  S
C510        C511   1.410   1_655  A
C511        C512   1.403       .  A
C511       Br518   1.918       .  S
C512        C513   1.407       .  A
C512        H517   1.083       .  S
C513        C514   1.409   1_455  A
C514       Br515   1.918       .  S
C519        C520   1.408       .  A
C519        C524   1.398       .  A
C519        H526   1.057       .  S
C520        C521   1.424       .  A
C521        C522   1.403       .  A
C521       Br528   1.916   1_554  S
C522        C523   1.399       .  A
C522        H527   1.082       .  S
C523        C524   1.405       .  A
C524       Br525   1.916       .  S
C529        C530   1.402   1_455  A
C529        C534   1.398       .  A
C529        H536   1.084       .  S
C530        C531   1.415       .  A
C531        C532   1.402       .  A
C531       Br538   1.919       .  S
C532        C533   1.402   1_655  A
C532        H537   1.083       .  S
C533        C534   1.411       .  A
C534       Br535   1.914       .  S
C539        C540   1.404       .  A
C539        C544   1.391       .  A
C539        H546   1.082       .  S
C540        C541   1.415       .  A
C541        C542   1.402       .  A
C541       Br548   1.919       .  S
C542        C543   1.400       .  A
C542        H547   1.083       .  S
C543        C544   1.407       .  A
C544       Br545   1.914       .  S
C549        C550   1.400       .  A
C549        C554   1.396       .  A
C549        H556   1.084       .  S
C550        C551   1.406       .  A
C551        C552   1.405       .  A
C551       Br558   1.918       .  S
C552        C553   1.411       .  A
C552        H557   1.083       .  S
C553        C554   1.413       .  A
C554       Br555   1.912       .  S
C559        C560   1.408       .  A
C559        C564   1.381       .  A
C559        H566   1.076       .  S
C560        C561   1.421       .  A
C561        C562   1.411       .  A
C561       Br568   1.921       .  S
C562        C563   1.408       .  A
C562        H567   1.084       .  S
C563        C564   1.401       .  A
C564       Br565   1.917       .  S
C569        C570   1.409       .  A
C569        C574   1.396       .  A
C569        H576   1.083       .  S
C570        C571   1.417       .  A
C571        C572   1.391       .  A
C571       Br578   1.914       .  S
C572        C573   1.401       .  A
C572        H577   1.084       .  S
C573        C574   1.409       .  A
C574       Br575   1.920       .  S
C579        C580   1.413       .  A
C579        C584   1.402       .  A
C579        H586   1.078       .  S
C580        C581   1.419       .  A
C581        C582   1.389       .  A
C581       Br588   1.911       .  S
C582        C583   1.389       .  A
C582        H587   1.085       .  S
C583        C584   1.401       .  A
C584       Br585   1.918       .  S
C589        C590   1.403       .  A
C589        C594   1.398       .  A
C589        H596   1.084       .  S
C590        C591   1.410       .  A
C591        C592   1.392       .  A
C591      Br1526   1.907       .  S
C592        C593   1.398       .  A
C592       H1525   1.084       .  S
C593        C594   1.413       .  A
C594       Br595   1.920       .  S
H597       C1520   1.084       .  S
Br598      C1519   1.907       .  S
C599        C600   1.399       .  A
C599        C604   1.398       .  A
C599        H606   1.085       .  S
C600        C601   1.407       .  A
C601        C602   1.391       .  A
C601       Br608   1.922       .  S
C602        C603   1.405       .  A
C602        H607   1.083       .  S
C603        C604   1.414       .  A
C604      Br1533   1.905       .  S
Br605      C1532   1.905       .  S
C609        C610   1.403       .  A
C609        C614   1.401       .  A
C609        H616   1.083       .  S
C610        C611   1.408       .  A
C611        C612   1.397       .  A
C611       Br618   1.923       .  S
C612        C613   1.409       .  A
C612        H617   1.081       .  S
C613        C614   1.418       .  A
C614       Br615   1.921       .  S
C619        C620   1.399       .  A
C619        C624   1.391       .  A
C619        H626   1.084       .  S
C620        C621   1.407       .  A
C621        C622   1.400       .  A
C621       Br628   1.914       .  S
C622        C623   1.405       .  A
C622        H627   1.084       .  S
C623        C624   1.407       .  A
C624       Br625   1.911       .  S
C629        C630   1.399       .  A
C629        C634   1.399       .  A
C629        H636   1.084       .  S
C630        C631   1.400       .  A
C631        C632   1.395       .  A
C631       Br638   1.920       .  S
C632        C633   1.410       .  A
C632        H637   1.082       .  S
C633        C634   1.423       .  A
C634       Br635   1.920       .  S
C639        C640   1.408       .  A
C639        C644   1.395       .  A
C639        H646   1.084       .  S
C640        C641   1.410       .  A
C641        C642   1.398       .  A
C641       Br648   1.894       .  S
C642        C643   1.396       .  A
C642        H647   1.084       .  S
C643        C644   1.405       .  A
C644       Br645   1.914       .  S
C649        C650   1.402       .  A
C649        C654   1.386       .  A
C649        H656   1.080       .  S
C650        C651   1.416       .  A
C651        C652   1.404       .  A
C651       Br658   1.918       .  S
C652        C653   1.407       .  A
C652        H657   1.083       .  S
C653        C654   1.412       .  A
C654       Br655   1.916       .  S
C659        C660   1.400       .  A
C659        C664   1.398       .  A
C659        H666   1.084       .  S
C660        C661   1.409       .  A
C661        C662   1.400       .  A
C661       Br668   1.916       .  S
C662        C663   1.404       .  A
C662        H667   1.083       .  S
C663        C664   1.415       .  A
C664       Br665   1.920       .  S
C669        C670   1.402       .  A
C669        C674   1.403       .  A
C669        H676   1.083       .  S
C670        C671   1.414       .  A
C671        C672   1.408       .  A
C671       Br678   1.917       .  S
C672        C673   1.406       .  A
C672        H677   1.083       .  S
C673        C674   1.414       .  A
C674       Br675   1.914       .  S
C679        C680   1.409       .  A
C679        C684   1.394       .  A
C679        H686   1.083       .  S
C680        C681   1.412       .  A
C681        C682   1.401       .  A
C681       Br688   1.906       .  S
C682        C683   1.405       .  A
C682        H687   1.083       .  S
C683        C684   1.401       .  A
C684       Br685   1.910       .  S
C689        C690   1.403       .  A
C689        C694   1.397       .  A
C689        H696   1.080       .  S
C690        C691   1.403       .  A
C691        C692   1.403       .  A
C691       Br698   1.914       .  S
C692        C693   1.411       .  A
C692        H697   1.084       .  S
C693        C694   1.410       .  A
C694       Br695   1.916       .  S
C699        C700   1.404       .  A
C699        C704   1.404       .  A
C699        H706   1.084       .  S
C700        C701   1.410       .  A
C701        C702   1.401       .  A
C701       Br708   1.920       .  S
C702        C703   1.405       .  A
C702        H707   1.083       .  S
C703        C704   1.412       .  A
C704       Br705   1.919   1_455  S
C709        C710   1.392       .  A
C709        C714   1.392       .  A
C709        H716   1.085       .  S
C710        C711   1.409       .  A
C711        C712   1.403       .  A
C711       Br718   1.914       .  S
C712        C713   1.410       .  A
C712        H717   1.082       .  S
C713        C714   1.422       .  A
C714       Br715   1.912       .  S
C719        C720   1.419       .  A
C719        C724   1.414       .  A
C719        H726   1.082       .  S
C720        C721   1.428       .  A
C721        C722   1.386       .  A
C721       Br728   1.933       .  S
C722        C723   1.397       .  A
C722        H727   1.080       .  S
C723        C724   1.412       .  A
C724       Br725   1.918       .  S
C729        C730   1.401       .  A
C729        C734   1.395       .  A
C729        H736   1.084       .  S
C730        C731   1.412       .  A
C731        C732   1.408       .  A
C731       Br738   1.921       .  S
C732        C733   1.417       .  A
C732        H737   1.082       .  S
C733        C734   1.422       .  A
C734       Br735   1.910       .  S
C739        C740   1.404       .  A
C739        C744   1.400       .  A
C739        H746   1.084       .  S
C740        C741   1.413       .  A
C741        C742   1.404       .  A
C741      Br1676   1.921       .  S
C742        C743   1.408       .  A
C742        H747   1.084       .  S
C743        C744   1.418       .  A
C744       Br745   1.924       .  S
Br748      C1669   1.921   1_545  S
C749        C750   1.396       .  A
C749        C754   1.398       .  A
C749        H756   1.084       .  S
C750        C751   1.406       .  A
C751        C752   1.404       .  A
C751       Br758   1.917       .  S
C752        C753   1.411       .  A
C752        H757   1.083       .  S
C753        C754   1.419       .  A
C754       Br755   1.914       .  S
C759        C760   1.401       .  A
C759        C764   1.402       .  A
C759        H766   1.084       .  S
C760        C761   1.404       .  A
C761        C762   1.397       .  A
C761       Br768   1.918       .  S
C762        C763   1.406       .  A
C762        H767   1.083       .  S
C763        C764   1.415       .  A
C764       Br765   1.921       .  S
C769        C770   1.413       .  A
C769        C774   1.389   1_554  A
C769        H776   1.073   1_554  S
C770        C771   1.420       .  A
C771        C772   1.401       .  A
C771       Br778   1.925       .  S
C772        C773   1.405       .  A
C772        H777   1.075       .  S
C773        C774   1.400   1_554  A
C774       Br775   1.910       .  S
C779        C780   1.408       .  A
C779        C784   1.408       .  A
C779        H786   1.078       .  S
C780        C781   1.403   1_556  A
C781        C782   1.384   1_554  A
C781       Br788   1.909       .  S
C782        C783   1.405       .  A
C782        H787   1.083   1_556  S
C783        C784   1.412       .  A
C784       Br785   1.917       .  S
C789        C790   1.411       .  A
C789        C794   1.400       .  A
C789        H796   1.083       .  S
C790        C791   1.417       .  A
C791        C792   1.410   1_455  A
C791       Br798   1.919   1_455  S
C792        C793   1.405   1_655  A
C792        H797   1.083       .  S
C793        C794   1.405       .  A
C794       Br795   1.919       .  S
C799        C800   1.394       .  A
C799        C804   1.393       .  A
C799        H806   1.085       .  S
C800        C801   1.408       .  A
C801        C802   1.399       .  A
C801       Br808   1.910       .  S
C802        C803   1.405       .  A
C802        H807   1.081       .  S
C803        C804   1.418       .  A
C804       Br805   1.905   1_556  S
C809        C810   1.405       .  A
C809        C814   1.402       .  A
C809        H816   1.083       .  S
C810        C811   1.407       .  A
C811        C812   1.400       .  A
C811       Br818   1.919       .  S
C812        C813   1.406       .  A
C812        H817   1.083       .  S
C813        C814   1.409       .  A
C814       Br815   1.918       .  S
C819        C820   1.399       .  A
C819        C824   1.402       .  A
C819        H826   1.085       .  S
C820        C821   1.401       .  A
C821        C822   1.399       .  A
C821       Br828   1.917       .  S
C822        C823   1.417       .  A
C822        H827   1.084       .  S
C823        C824   1.422       .  A
C824       Br825   1.905       .  S
C829        C830   1.400       .  A
C829        C834   1.399       .  A
C829        H836   1.083       .  S
C830        C831   1.408       .  A
C831        C832   1.391       .  A
C831       Br838   1.920       .  S
C832        C833   1.400       .  A
C832        H837   1.084       .  S
C833        C834   1.409       .  A
C834       Br835   1.914       .  S
C839        C840   1.405       .  A
C839        C844   1.395       .  A
C839        H846   1.070       .  S
C840        C841   1.418       .  A
C841        C842   1.402       .  A
C841       Br848   1.917   1_554  S
C842        C843   1.399       .  A
C842        H847   1.084       .  S
C843        C844   1.406       .  A
C844       Br845   1.921       .  S
C849        C850   1.400       .  A
C849        C854   1.388       .  A
C849        H856   1.084       .  S
C850        C851   1.411       .  A
C851        C852   1.401       .  A
C851       Br858   1.915       .  S
C852        C853   1.402       .  A
C852        H857   1.081       .  S
C853        C854   1.405       .  A
C854       Br855   1.912       .  S
C859        C860   1.405       .  A
C859        C864   1.409       .  A
C859        H866   1.083       .  S
C860        C861   1.393       .  A
C861        C862   1.377       .  A
C861       Br868   1.925       .  S
C862        C863   1.419       .  A
C862        H867   1.078       .  S
C863        C864   1.422       .  A
C864       Br865   1.918       .  S
C869        C870   1.405       .  A
C869        C874   1.399   1_455  A
C869        H876   1.083       .  S
C870        C871   1.415   1_455  A
C871        C872   1.401       .  A
C871       Br878   1.919       .  S
C872        C873   1.403       .  A
C872        H877   1.083       .  S
C873        C874   1.412       .  A
C874       Br875   1.923   1_655  S
C879        C880   1.410       .  A
C879        C884   1.388       .  A
C879        H886   1.080       .  S
C880        C881   1.411       .  A
C881        C882   1.401       .  A
C881       Br888   1.909       .  S
C882        C883   1.406       .  A
C882        H887   1.083       .  S
C883        C884   1.408       .  A
C884       Br885   1.923       .  S
C889        C890   1.405       .  A
C889        C894   1.387       .  A
C889        H896   1.079       .  S
C890        C891   1.419       .  A
C891        C892   1.402       .  A
C891       Br898   1.918       .  S
C892        C893   1.405       .  A
C892        H897   1.083       .  S
C893        C894   1.411       .  A
C894       Br895   1.916       .  S
C899        C900   1.408       .  A
C899        C904   1.395       .  A
C899        H906   1.083       .  S
C900        C901   1.409       .  A
C901        C902   1.394       .  A
C901       Br908   1.914       .  S
C902        C903   1.397       .  A
C902        H907   1.084       .  S
C903        C904   1.406       .  A
C904       Br905   1.919       .  S
C909        C910   1.399       .  A
C909        C914   1.390       .  A
C909        H916   1.084       .  S
C910        C911   1.404       .  A
C911        C912   1.394       .  A
C911       Br918   1.920       .  S
C912        C913   1.405       .  A
C912        H917   1.083       .  S
C913        C914   1.406       .  A
C914       Br915   1.910       .  S
C919        C920   1.400       .  A
C919        C924   1.394       .  A
C919        H926   1.084       .  S
C920        C921   1.405       .  A
C920        C949   1.461       .  S
C921        C922   1.399       .  A
C921      Br1856   1.919       .  S
C922        C923   1.402       .  A
C922        H927   1.083       .  S
C923        C924   1.405       .  A
C924       Br925   1.914       .  S
Br928      C1849   1.919       .  S
N929        N930   1.324       .  A
N929        C933   1.343       .  A
N929       Cu937   2.079       .  S
N930        C931   1.343       .  A
N930       Cu936   2.051       .  S
C931        C932   1.376       .  A
C931        H934   1.082       .  S
C932        C933   1.381       .  A
C932       C1831   1.462       .  S
C933        H935   1.082       .  S
Cu936       N939   2.050       .  S
Cu937       N947   2.078       .  S
Cu938       N940   2.040       .  S
Cu938       N946   2.040       .  S
N939        N940   1.320       .  A
N939        C943   1.343       .  A
N940        C941   1.337       .  A
C941        C942   1.375       .  A
C941        H944   1.082       .  S
C942        C943   1.380       .  A
C942       C1838   1.457       .  S
C943        H945   1.082       .  S
N946        N947   1.320       .  A
N946        C950   1.340       .  A
N947        C948   1.346       .  A
C948        C949   1.382       .  A
C948        H951   1.081       .  S
C949        C950   1.375       .  A
C950        H952   1.082       .  S
N953        N954   1.322       .  A
N953        C957   1.339       .  A
N953       Cu961   2.062       .  S
N954        C955   1.344       .  A
N954       Cu960   2.069       .  S
C955        C956   1.386       .  A
C955        H958   1.082       .  S
C956        C957   1.383       .  A
C956       C1811   1.480       .  S
C957        H959   1.080       .  S
Cu960       N963   2.068       .  S
Cu961       N971   2.060       .  S
Cu962       N964   2.056       .  S
Cu962       N970   2.055       .  S
N963        N964   1.318       .  A
N963        C967   1.346       .  A
N964        C965   1.335       .  A
C965        C966   1.389       .  A
C965        H968   1.080       .  S
C966        C967   1.393       .  A
C966       C1818   1.494       .  S
C967        H969   1.078       .  S
N970        N971   1.319       .  A
N970        C974   1.343       .  A
N971        C972   1.344       .  A
C972        C973   1.380       .  A
C972        H975   1.082       .  S
C973        C974   1.381       .  A
C973       C1851   1.465       .  S
C974        H976   1.082       .  S
N977        N978   1.320       .  A
N977        C981   1.338       .  A
N977       Cu985   2.066       .  S
N978        C979   1.344       .  A
N978       Cu984   2.034       .  S
C979        C980   1.375       .  A
C979        H982   1.082       .  S
C980        C981   1.382       .  A
C980       C1788   1.460       .  S
C981        H983   1.083       .  S
Cu984       N987   2.034       .  S
Cu985       N995   2.066       .  S
Cu986       N988   2.084       .  S
N987        N988   1.322       .  A
N987        C991   1.337       .  A
N988        C989   1.347       .  A
C989        C990   1.388       .  A
C989        H992   1.082       .  S
C990        C991   1.376       .  A
C990       C1778   1.471       .  S
C991        H993   1.083       .  S
N994        C998   1.346       .  A
C996        C997   1.386       .  A
C996        H999   1.081       .  S
C997        C998   1.390       .  A
C997       C1798   1.487       .  S
C998       H1000   1.082       .  S
N1001      N1002   1.321       .  A
N1001      C1005   1.339       .  A
N1001     Cu1009   2.050       .  S
N1002      C1003   1.347       .  A
N1002     Cu1008   2.071       .  S
C1003      C1004   1.383       .  A
C1003      H1006   1.082       .  S
C1004      C1005   1.377       .  A
C1004      C1758   1.466       .  S
C1005      H1007   1.082       .  S
Cu1008     N1011   2.073       .  S
Cu1009     N1019   2.052       .  S
Cu1010     N1012   2.089       .  S
Cu1010     N1018   2.088       .  S
N1011      N1012   1.324       .  A
N1011      C1015   1.346       .  A
N1012      C1013   1.345       .  A
C1013      C1014   1.384       .  A
C1013      H1016   1.082       .  S
C1014      C1015   1.383       .  A
C1014      C1771   1.475       .  S
C1015      H1017   1.082       .  S
N1018      N1019   1.320       .  A
N1018      C1022   1.348       .  A
N1019      C1020   1.341       .  A
C1020      C1021   1.382       .  A
C1020      H1023   1.082       .  S
C1021      C1022   1.391       .  A
C1021      C1801   1.482       .  S
C1022      H1024   1.082       .  S
C1025      C1026   1.410       .  A
C1025      C1738   1.481       .  S
C1026      C1027   1.404       .  A
C1026      H1031   1.084       .  S
C1027      C1260   1.484   1_554  S
C1028      C1029   1.402       .  A
C1028      H1032   1.085   1_554  S
C1029      C1030   1.401       .  A
C1029      C1748   1.479       .  S
C1030      H1033   1.084       .  S
C1034      C1035   1.377       .  D
C1034      C1751   1.516       .  S
C1034      C1841   1.490   1_554  S
C1035      C1731   1.511   1_554  S
C1035      C1791   1.526       .  S
C1036      C1037   1.412       .  A
C1036      C1041   1.424       .  A
C1036      C1718   1.504       .  S
C1037      C1038   1.396       .  A
C1037      H1042   1.084       .  S
C1038      C1039   1.395       .  A
C1038      C1728   1.475       .  S
C1039      C1040   1.401       .  A
C1039      H1043   1.085       .  S
C1040      C1041   1.416       .  A
C1040      C1251   1.494   1_556  S
C1041      H1044   1.081       .  S
C1045      C1046   1.370   1_556  D
C1045      C1701   1.495   1_556  S
C1045      C1821   1.499       .  S
C1046      C1708   1.494   1_554  S
C1046      C1768   1.503       .  S
C1047      C1048   1.410       .  A
C1047      C1052   1.409       .  A
C1047      C1691   1.487       .  S
C1048      C1049   1.398       .  A
C1048      H1053   1.083       .  S
C1049      C1050   1.400       .  A
C1049      C1273   1.479   1_554  S
C1050      C1051   1.407       .  A
C1050      H1054   1.081   1_554  S
C1051      C1052   1.408       .  A
C1051      C1698   1.511       .  S
C1052      H1055   1.072       .  S
C1056      C1057   1.408       .  A
C1056      C1061   1.410       .  A
C1056      C1678   1.477       .  S
C1057      C1058   1.407       .  A
C1057      H1062   1.082       .  S
C1058      C1059   1.405   1_556  A
C1058      C1711   1.491       .  S
C1059      C1060   1.396       .  A
C1059      H1063   1.085       .  S
C1060      C1061   1.402   1_554  A
C1060      C1282   1.479       .  S
C1061      H1064   1.084       .  S
O1065     Cu1073   2.004       .  S
O1065      C1075   1.276       .  A
O1066     Cu1073   1.995       .  S
O1066      C1076   1.278       .  A
O1067     Cu1073   2.022       .  S
O1067      C1077   1.279       .  A
O1068     Cu1073   2.030       .  S
O1068      C1078   1.281       .  A
O1069     Cu1074   2.003       .  S
O1069      C1078   1.276       .  A
O1070     Cu1074   1.997       .  S
O1070      C1077   1.275       .  A
O1071     Cu1074   2.032       .  S
O1071      C1076   1.279       .  A
O1072     Cu1074   2.024       .  S
O1072      C1075   1.280       .  A
Cu1073    Cu1074   2.369       .  S
C1075      C1741   1.479       .  S
C1076      C1658   1.493       .  S
C1077      C1688   1.468       .  S
C1078      C1671   1.493       .  S
C1079      C1084   1.410       .  A
C1079      C1668   1.492       .  S
C1080      C1081   1.418       .  A
C1080      H1085   1.082       .  S
C1081      C1082   1.406       .  A
C1081      C1648   1.515       .  S
C1082      H1086   1.074       .  S
C1083      C1084   1.399       .  A
C1083      C1231   1.482       .  S
C1084      H1087   1.084       .  S
C1088      C1089   1.417       .  A
C1088      C1093   1.410       .  A
C1088      C1628   1.484       .  S
C1089      C1090   1.409       .  A
C1089      H1094   1.083       .  S
C1090      C1091   1.399       .  A
C1090      C1242   1.486       .  S
C1091      C1092   1.389       .  A
C1091      H1095   1.081       .  S
C1092      C1093   1.400       .  A
C1092      C1638   1.475       .  S
C1093      H1096   1.084       .  S
C1097      C1098   1.364       .  D
C1097      C1651   1.503       .  S
C1097      C1828   1.493       .  S
C1098      C1641   1.509       .  S
C1098      C1781   1.480       .  S
C1099      C1100   1.367       .  D
C1099      C1611   1.495       .  S
C1099      C1808   1.505       .  S
C1100      C1621   1.495       .  S
C1100      C1761   1.483       .  S
C1101      C1102   1.424       .  A
C1101      C1106   1.424       .  A
C1101      C1661   1.516       .  S
C1102      C1103   1.410       .  A
C1102      H1107   1.078       .  S
C1103      C1104   1.398       .  A
C1103      C1608   1.494       .  S
C1104      C1105   1.390       .  A
C1104      H1108   1.086       .  S
C1105      C1106   1.401       .  A
C1105      C1314   1.481       .  S
C1106      H1109   1.080       .  S
C1110      C1111   1.411       .  A
C1110      C1115   1.416       .  A
C1110      C1598   1.493       .  S
C1111      C1112   1.403       .  A
C1111      H1116   1.083       .  S
C1112      C1113   1.401       .  A
C1112      C1618   1.483       .  S
C1113      C1114   1.405       .  A
C1113      H1117   1.086       .  S
C1114      C1115   1.411       .  A
C1114      C1305   1.494       .  S
C1115      H1118   1.084       .  S
O1119     Cu1127   2.028       .  S
O1119      C1129   1.279       .  A
O1120      C1130   1.281       .  A
O1121      C1131   1.279       .  A
O1122     Cu1127   2.026       .  S
O1122      C1132   1.280       .  A
O1123     Cu1128   2.015   1_455  S
O1124     Cu1128   2.022       .  S
O1124      C1131   1.279       .  A
O1125     Cu1128   2.024       .  S
O1125      C1130   1.279       .  A
O1126     Cu1128   2.026   1_455  S
C1129      C1721   1.483   1_655  S
C1130      C1601   1.493       .  S
C1131      C1681   1.494       .  S
C1132      C1631   1.485   1_655  S
N1133      N1134   1.318       .  A
N1133      C1137   1.336       .  A
N1133     Cu1141   2.057       .  S
N1134      C1135   1.347       .  A
N1134     Cu1140   2.067       .  S
C1135      C1136   1.391       .  A
C1135      H1138   1.080       .  S
C1136      C1137   1.388       .  A
C1136      C1578   1.488       .  S
C1137      H1139   1.081       .  S
Cu1140     N1143   2.069       .  S
Cu1141     N1151   2.057       .  S
Cu1142     N1144   2.079       .  S
Cu1142     N1150   2.077       .  S
N1143      N1144   1.325       .  A
N1143      C1147   1.345       .  A
N1144      C1145   1.343       .  A
C1145      C1146   1.381       .  A
C1145      H1148   1.082       .  S
C1146      C1147   1.379       .  A
C1146      C1571   1.469       .  S
C1147      H1149   1.082       .  S
N1150      N1151   1.319       .  A
N1150      C1154   1.346       .  A
N1151      C1152   1.342       .  A
C1152      C1153   1.384       .  A
C1152      H1155   1.081       .  S
C1153      C1154   1.389       .  A
C1153      C1591   1.483       .  S
C1154      H1156   1.082       .  S
N1157      N1158   1.321       .  A
N1157      C1161   1.342       .  A
N1157     Cu1165   2.067       .  S
N1158      C1159   1.345       .  A
N1158     Cu1164   2.068       .  S
C1159      C1160   1.382       .  A
C1159      H1162   1.082       .  S
C1160      C1161   1.381       .  A
C1160      C1548   1.466       .  S
C1161      H1163   1.082       .  S
Cu1164     N1167   2.068       .  S
Cu1165     N1175   2.068       .  S
Cu1166     N1168   2.074       .  S
Cu1166     N1174   2.075       .  S
N1167      N1168   1.322       .  A
N1167      C1171   1.345       .  A
N1168      C1169   1.343       .  A
C1169      C1170   1.383       .  A
C1169      H1172   1.083       .  S
C1170      C1171   1.382       .  A
C1170      C1558   1.469       .  S
C1171      H1173   1.082       .  S
N1174      N1175   1.321       .  A
C1176      C1177   1.383       .  A
C1176      H1179   1.082       .  S
C1177      C1178   1.385       .  A
C1177      C1588   1.477       .  S
C1178      H1180   1.082       .  S
N1181      N1182   1.319       .  A
N1181      C1185   1.341       .  A
N1181     Cu1189   2.053       .  S
N1182      C1183   1.342       .  A
N1182     Cu1188   2.055       .  S
C1183      C1184   1.383       .  A
C1183      H1186   1.082       .  S
C1184      C1185   1.380       .  A
C1184      C1521   1.471       .  S
C1185      H1187   1.081       .  S
Cu1188     N1191   2.055       .  S
Cu1189     N1199   2.053   1_455  S
Cu1190     N1192   2.069       .  S
Cu1190     N1198   2.069   1_455  S
N1191      N1192   1.323       .  A
N1191      C1195   1.343       .  A
N1192      C1193   1.341       .  A
C1193      C1194   1.380       .  A
C1193      H1196   1.082       .  S
C1194      C1195   1.378       .  A
C1194      C1528   1.467       .  S
C1195      H1197   1.082       .  S
N1198      N1199   1.319       .  A
N1198      C1202   1.346       .  A
N1199      C1200   1.340       .  A
C1200      C1201   1.383       .  A
C1200      H1203   1.082       .  S
C1201      C1202   1.388       .  A
C1201      C1538   1.480       .  S
C1202      H1204   1.082       .  S
N1205      N1206   1.322       .  A
N1205      C1209   1.344   1_565  A
N1206      C1207   1.340       .  A
N1206     Cu1212   2.040       .  S
C1207      C1208   1.374       .  A
C1207      H1210   1.082       .  S
C1208      C1209   1.382   1_565  A
C1208      C1511   1.459       .  S
C1209      H1211   1.082       .  S
Cu1212     N1215   2.040       .  S
Cu1213     N1223   2.075       .  S
Cu1214     N1222   2.065       .  S
N1215      N1216   1.317       .  A
N1215      C1219   1.340       .  A
N1216      C1217   1.340       .  A
C1217      C1218   1.388       .  A
C1217      H1220   1.077       .  S
C1218      C1219   1.384       .  A
C1218      C1498   1.483       .  S
C1219      H1221   1.081       .  S
N1222      N1223   1.320       .  A
N1222      C1226   1.343       .  A
N1223      C1224   1.343       .  A
C1224      C1225   1.391       .  A
C1224      H1227   1.081       .  S
C1225      C1226   1.388       .  A
C1225      C1541   1.492       .  S
C1226      H1228   1.078       .  S
C1229      C1230   1.411       .  A
C1229      C1234   1.410       .  A
C1229      C1478   1.479       .  S
C1230      C1231   1.401       .  A
C1230      H1235   1.083       .  S
C1231      C1232   1.399       .  A
C1232      C1233   1.408       .  A
C1233      C1234   1.406       .  A
C1233      C1488   1.504       .  S
C1234      H1237   1.079       .  S
C1238      C1239   1.364       .  D
C1238      C1468   1.499       .  S
C1238      C1531   1.494       .  S
C1239      C1491   1.490       .  S
C1239      C1581   1.501       .  S
C1240      C1241   1.414       .  A
C1240      C1245   1.406       .  A
C1240      C1461   1.483       .  S
C1241      C1242   1.410       .  A
C1241      H1246   1.084       .  S
C1242      C1243   1.401       .  A
C1243      C1244   1.399       .  A
C1243      H1247   1.086       .  S
C1244      C1245   1.399       .  A
C1244      C1471   1.473       .  S
C1245      H1248   1.084       .  S
C1249      C1250   1.418       .  A
C1249      C1254   1.407       .  A
C1249      C1441   1.491       .  S
C1250      C1251   1.413       .  A
C1250      H1255   1.084       .  S
C1251      C1252   1.406       .  A
C1252      C1253   1.402       .  A
C1252      H1256   1.085   1_554  S
C1253      C1254   1.400       .  A
C1253      C1451   1.480       .  S
C1254      H1257   1.084       .  S
C1258      C1259   1.420       .  A
C1258      C1263   1.409       .  A
C1258      C1421   1.498       .  S
C1259      C1260   1.414       .  A
C1259      H1264   1.082       .  S
C1260      C1261   1.400       .  A
C1261      C1262   1.390       .  A
C1262      C1263   1.396       .  A
C1262      C1428   1.468       .  S
C1263      H1266   1.084       .  S
C1267      C1268   1.386   1_554  D
C1267      C1431   1.523   1_554  S
C1267      C1568   1.501       .  S
C1268      C1448   1.537   1_556  S
C1268      C1518   1.486       .  S
C1269      C1270   1.367       .  D
C1269      C1398   1.495       .  S
C1269      C1508   1.503   1_554  S
C1270      C1408   1.500       .  S
C1270      C1561   1.498       .  S
C1271      C1272   1.409       .  A
C1271      C1276   1.419       .  A
C1271      C1388   1.491       .  S
C1272      C1273   1.395       .  A
C1272      H1277   1.085       .  S
C1273      C1274   1.397       .  A
C1274      C1275   1.410       .  A
C1274      H1278   1.085   1_556  S
C1275      C1276   1.417       .  A
C1275      C1411   1.507       .  S
C1276      H1279   1.082       .  S
C1280      C1281   1.414       .  A
C1280      C1285   1.406       .  A
C1280      C1381   1.473       .  S
C1281      C1282   1.405       .  A
C1281      H1286   1.083       .  S
C1282      C1283   1.401       .  A
C1283      C1284   1.393       .  A
C1283      H1287   1.085       .  S
C1284      C1285   1.393       .  A
C1284      C1401   1.468       .  S
C1285      H1288   1.084       .  S
O1289     Cu1297   2.016       .  S
O1289      C1299   1.278       .  A
O1290     Cu1297   2.005       .  S
O1290      C1300   1.276       .  A
O1291     Cu1297   2.028       .  S
O1291      C1301   1.281       .  A
O1292     Cu1297   2.029       .  S
O1292      C1302   1.279       .  A
O1293     Cu1298   2.021       .  S
O1293      C1302   1.279       .  A
O1294     Cu1298   2.020       .  S
O1294      C1301   1.279       .  A
O1295     Cu1298   2.003       .  S
O1295      C1300   1.276       .  A
O1296     Cu1298   2.006       .  S
O1296      C1299   1.278       .  A
Cu1297    Cu1298   2.371       .  S
C1299      C1458   1.481       .  S
C1300      C1378   1.464       .  S
C1301      C1368   1.494       .  S
C1302      C1438   1.487       .  S
C1303      C1304   1.421       .  A
C1303      C1308   1.419       .  A
C1303      C1371   1.495       .  S
C1304      C1305   1.407       .  A
C1304      H1309   1.082       .  S
C1305      C1306   1.396       .  A
C1306      C1307   1.393       .  A
C1306      H1310   1.082       .  S
C1307      C1308   1.407       .  A
C1307      C1358   1.497       .  S
C1308      H1311   1.083       .  S
C1312      C1313   1.412       .  A
C1312      C1317   1.406       .  A
C1312      C1338   1.479       .  S
C1313      C1314   1.406       .  A
C1313      H1318   1.084       .  S
C1314      C1315   1.405       .  A
C1315      C1316   1.396       .  A
C1315      H1319   1.086       .  S
C1316      C1317   1.402       .  A
C1316      C1348   1.476       .  S
C1317      H1320   1.084       .  S
C1321      C1322   1.377       .  D
C1321      C1351   1.556       .  S
C1321      C1551   1.477       .  S
C1322      C1361   1.554       .  S
C1322      C1501   1.476       .  S
O1323     Cu1331   2.020       .  S
O1323      C1333   1.278       .  A
O1324     Cu1331   2.022       .  S
O1324      C1334   1.278       .  A
O1325     Cu1331   2.024       .  S
O1325      C1335   1.280       .  A
O1326     Cu1331   2.031       .  S
O1326      C1336   1.281       .  A
O1327     Cu1332   2.012       .  S
O1327      C1336   1.277       .  A
O1328     Cu1332   2.013       .  S
O1328      C1335   1.277       .  A
O1329     Cu1332   2.026       .  S
O1329      C1334   1.279       .  A
O1330     Cu1332   2.022       .  S
O1330      C1333   1.280       .  A
Cu1331    Cu1332   2.362       .  S
C1333      C1341   1.494       .  S
C1334      C1418   1.497       .  S
C1335      C1481   1.489       .  S
C1336      C1391   1.498       .  S
C1337      C1338   1.398       .  A
C1337      C1342   1.401       .  A
C1337      H1344   1.084       .  S
C1338      C1339   1.406       .  A
C1339      C1340   1.402       .  A
C1339     Br1346   1.916       .  S
C1340      C1341   1.409       .  A
C1340      H1345   1.083       .  S
C1341      C1342   1.420       .  A
C1342     Br1343   1.916       .  S
C1347      C1348   1.391       .  A
C1347      H1354   1.086       .  S
C1349      C1350   1.401       .  A
C1349     Br1356   1.916       .  S
C1350      C1351   1.425       .  A
C1350      H1355   1.080       .  S
C1351      C1352   1.437   1_565  A
C1352     Br1353   1.918       .  S
C1357      C1358   1.401       .  A
C1357      C1362   1.417       .  A
C1357      H1364   1.083       .  S
C1358      C1359   1.406       .  A
C1359      C1360   1.386       .  A
C1359     Br1366   1.931       .  S
C1360      C1361   1.413       .  A
C1360      H1365   1.079       .  S
C1361      C1362   1.436       .  A
C1362     Br1363   1.909       .  S
C1367      C1368   1.408       .  A
C1367      H1374   1.084       .  S
C1369      C1370   1.404       .  A
C1369     Br1376   1.923       .  S
C1370      C1371   1.405       .  A
C1370      H1375   1.084       .  S
C1371      C1372   1.412   1_565  A
C1377      C1378   1.402       .  A
C1377      H1384   1.084       .  S
C1379      C1380   1.397       .  A
C1379     Br1386   1.917       .  S
C1380      C1381   1.404       .  A
C1380      H1385   1.084       .  S
C1381      C1382   1.408   1_565  A
C1387      C1388   1.404       .  A
C1387      C1392   1.400       .  A
C1387      H1394   1.084       .  S
C1388      C1389   1.409       .  A
C1389      C1390   1.407       .  A
C1389     Br1396   1.918       .  S
C1390      C1391   1.411       .  A
C1390      H1395   1.082       .  S
C1391      C1392   1.419       .  A
C1392     Br1393   1.925       .  S
C1397      C1398   1.409       .  A
C1397      C1402   1.406       .  A
C1397      H1404   1.083       .  S
C1398      C1399   1.415       .  A
C1399      C1400   1.389       .  A
C1399     Br1406   1.904   1_565  S
C1400      C1401   1.390       .  A
C1400      H1405   1.084   1_565  S
C1401      C1402   1.406       .  A
C1402     Br1403   1.914       .  S
C1407      C1408   1.414   1_556  A
C1407      C1412   1.419       .  A
C1407      H1414   1.083       .  S
C1408      C1409   1.403   1_565  A
C1409     Br1416   1.911       .  S
C1410      C1411   1.404   1_554  A
C1410      H1415   1.079       .  S
C1412     Br1413   1.915       .  S
C1417      C1418   1.411       .  A
C1417      C1422   1.407       .  A
C1417      H1424   1.083       .  S
C1418      C1419   1.415       .  A
C1419      C1420   1.400       .  A
C1419     Br1426   1.920       .  S
C1420      C1421   1.407       .  A
C1420      H1425   1.084       .  S
C1421      C1422   1.413       .  A
C1422     Br1423   1.920       .  S
C1427      C1428   1.396       .  A
C1427      C1432   1.397       .  A
C1427      H1434   1.084       .  S
C1428      C1429   1.404       .  A
C1429      C1430   1.399       .  A
C1429     Br1436   1.919       .  S
C1430      C1431   1.412       .  A
C1430      H1435   1.081       .  S
C1431      C1432   1.415       .  A
C1432     Br1433   1.914       .  S
C1437      C1438   1.408       .  A
C1437      C1442   1.406       .  A
C1437      H1444   1.083       .  S
C1438      C1439   1.410   1_655  A
C1439      C1440   1.403       .  A
C1439     Br1446   1.918       .  S
C1440      C1441   1.407       .  A
C1440      H1445   1.083       .  S
C1441      C1442   1.409   1_455  A
C1442     Br1443   1.918       .  S
C1447      C1448   1.408       .  A
C1447      C1452   1.398       .  A
C1447      H1454   1.057       .  S
C1448      C1449   1.424       .  A
C1449      C1450   1.403       .  A
C1449     Br1456   1.916   1_554  S
C1450      C1451   1.399       .  A
C1450      H1455   1.082       .  S
C1451      C1452   1.405       .  A
C1452     Br1453   1.916       .  S
C1457      C1458   1.402   1_455  A
C1457      C1462   1.398       .  A
C1457      H1464   1.084       .  S
C1458      C1459   1.415       .  A
C1459      C1460   1.402       .  A
C1459     Br1466   1.919       .  S
C1460      C1461   1.402   1_655  A
C1460      H1465   1.083       .  S
C1461      C1462   1.411       .  A
C1462     Br1463   1.914       .  S
C1467      C1468   1.404       .  A
C1467      C1472   1.391       .  A
C1467      H1474   1.082       .  S
C1468      C1469   1.415       .  A
C1469      C1470   1.402       .  A
C1469     Br1476   1.919       .  S
C1470      C1471   1.400       .  A
C1470      H1475   1.083       .  S
C1471      C1472   1.407       .  A
C1472     Br1473   1.914       .  S
C1477      C1478   1.400       .  A
C1477      C1482   1.396       .  A
C1477      H1484   1.084       .  S
C1478      C1479   1.406       .  A
C1479      C1480   1.405       .  A
C1479     Br1486   1.918       .  S
C1480      C1481   1.411       .  A
C1480      H1485   1.083       .  S
C1481      C1482   1.413       .  A
C1482     Br1483   1.912       .  S
C1487      C1488   1.408       .  A
C1487      C1492   1.381       .  A
C1487      H1494   1.076       .  S
C1488      C1489   1.421       .  A
C1489      C1490   1.411       .  A
C1489     Br1496   1.921       .  S
C1490      C1491   1.408       .  A
C1490      H1495   1.084       .  S
C1491      C1492   1.401       .  A
C1492     Br1493   1.917       .  S
C1497      C1498   1.409       .  A
C1497      C1502   1.396       .  A
C1497      H1504   1.083       .  S
C1498      C1499   1.417       .  A
C1499      C1500   1.391       .  A
C1499     Br1506   1.914   1_565  S
C1500      C1501   1.401       .  A
C1500      H1505   1.084   1_565  S
C1501      C1502   1.409       .  A
C1502     Br1503   1.920       .  S
C1507      C1508   1.413       .  A
C1507      C1512   1.402       .  A
C1507      H1514   1.078   1_565  S
C1508      C1509   1.419       .  A
C1509      C1510   1.389       .  A
C1509     Br1516   1.911       .  S
C1510      C1511   1.389       .  A
C1510      H1515   1.085       .  S
C1511      C1512   1.401       .  A
C1512     Br1513   1.918   1_565  S
C1517      C1518   1.403       .  A
C1517      C1522   1.398       .  A
C1517      H1524   1.084       .  S
C1518      C1519   1.410       .  A
C1519      C1520   1.392       .  A
C1520      C1521   1.398       .  A
C1521      C1522   1.413       .  A
C1522     Br1523   1.920       .  S
C1527      C1528   1.399       .  A
C1527      C1532   1.398       .  A
C1527      H1534   1.085       .  S
C1528      C1529   1.407       .  A
C1529      C1530   1.391       .  A
C1529     Br1536   1.922       .  S
C1530      C1531   1.405       .  A
C1530      H1535   1.083       .  S
C1531      C1532   1.414       .  A
C1537      C1538   1.403       .  A
C1537      C1542   1.401       .  A
C1537      H1544   1.083       .  S
C1538      C1539   1.408       .  A
C1539      C1540   1.397       .  A
C1539     Br1546   1.923       .  S
C1540      C1541   1.409       .  A
C1540      H1545   1.081       .  S
C1541      C1542   1.418       .  A
C1542     Br1543   1.921       .  S
C1547      C1548   1.399       .  A
C1547      C1552   1.391       .  A
C1547      H1554   1.084       .  S
C1548      C1549   1.407       .  A
C1549      C1550   1.400       .  A
C1549     Br1556   1.914       .  S
C1550      C1551   1.405       .  A
C1550      H1555   1.084       .  S
C1551      C1552   1.407       .  A
C1552     Br1553   1.911   1_565  S
C1557      C1558   1.399       .  A
C1557      C1562   1.399       .  A
C1557      H1564   1.084       .  S
C1558      C1559   1.400       .  A
C1559      C1560   1.395       .  A
C1559     Br1566   1.920       .  S
C1560      C1561   1.410       .  A
C1560      H1565   1.082       .  S
C1561      C1562   1.423       .  A
C1562     Br1563   1.920       .  S
C1567      C1568   1.408       .  A
C1567      C1572   1.395       .  A
C1567      H1574   1.084       .  S
C1568      C1569   1.410       .  A
C1569      C1570   1.398       .  A
C1569     Br1576   1.894       .  S
C1570      C1571   1.396       .  A
C1570      H1575   1.084       .  S
C1571      C1572   1.405       .  A
C1572     Br1573   1.914       .  S
C1577      C1578   1.402       .  A
C1577      C1582   1.386       .  A
C1577      H1584   1.080       .  S
C1578      C1579   1.416       .  A
C1579      C1580   1.404       .  A
C1579     Br1586   1.918       .  S
C1580      C1581   1.407       .  A
C1580      H1585   1.083       .  S
C1581      C1582   1.412       .  A
C1582     Br1583   1.916       .  S
C1587      C1588   1.400       .  A
C1587      C1592   1.398       .  A
C1587      H1594   1.084       .  S
C1588      C1589   1.409       .  A
C1589      C1590   1.400       .  A
C1589     Br1596   1.916       .  S
C1590      C1591   1.404       .  A
C1590      H1595   1.083       .  S
C1591      C1592   1.415       .  A
C1592     Br1593   1.920       .  S
C1597      C1598   1.402       .  A
C1597      C1602   1.403       .  A
C1597      H1604   1.083       .  S
C1598      C1599   1.414       .  A
C1599      C1600   1.408       .  A
C1599     Br1606   1.917       .  S
C1600      C1601   1.406       .  A
C1600      H1605   1.083       .  S
C1601      C1602   1.414       .  A
C1602     Br1603   1.914       .  S
C1607      C1608   1.409       .  A
C1607      C1612   1.394       .  A
C1607      H1614   1.083       .  S
C1608      C1609   1.412       .  A
C1609      C1610   1.401       .  A
C1609     Br1616   1.906       .  S
C1610      C1611   1.405       .  A
C1610      H1615   1.083       .  S
C1611      C1612   1.401       .  A
C1612     Br1613   1.910       .  S
C1617      C1618   1.403       .  A
C1617      C1622   1.397       .  A
C1617      H1624   1.080       .  S
C1618      C1619   1.403       .  A
C1619      C1620   1.403       .  A
C1619     Br1626   1.914       .  S
C1620      C1621   1.411       .  A
C1620      H1625   1.084       .  S
C1621      C1622   1.410       .  A
C1622     Br1623   1.916       .  S
C1627      C1628   1.404       .  A
C1627      C1632   1.404       .  A
C1627      H1634   1.084       .  S
C1628      C1629   1.410       .  A
C1629      C1630   1.401       .  A
C1629     Br1636   1.920       .  S
C1630      C1631   1.405       .  A
C1630      H1635   1.083       .  S
C1631      C1632   1.412       .  A
C1632     Br1633   1.919   1_455  S
C1637      C1638   1.392       .  A
C1637      C1642   1.392       .  A
C1637      H1644   1.085       .  S
C1638      C1639   1.409       .  A
C1639      C1640   1.403       .  A
C1639     Br1646   1.914       .  S
C1640      C1641   1.410       .  A
C1640      H1645   1.082       .  S
C1641      C1642   1.422       .  A
C1642     Br1643   1.912       .  S
C1647      C1648   1.419       .  A
C1647      C1652   1.414       .  A
C1647      H1654   1.082       .  S
C1648      C1649   1.428       .  A
C1649      C1650   1.386       .  A
C1649     Br1656   1.933       .  S
C1650      C1651   1.397       .  A
C1650      H1655   1.080       .  S
C1651      C1652   1.412       .  A
C1652     Br1653   1.918       .  S
C1657      C1658   1.401       .  A
C1657      C1662   1.395       .  A
C1657      H1664   1.084       .  S
C1658      C1659   1.412       .  A
C1659      C1660   1.408       .  A
C1659     Br1666   1.921       .  S
C1660      C1661   1.417       .  A
C1660      H1665   1.082       .  S
C1661      C1662   1.422       .  A
C1662     Br1663   1.910       .  S
C1667      C1668   1.404       .  A
C1667      C1672   1.400       .  A
C1667      H1674   1.084       .  S
C1668      C1669   1.413       .  A
C1669      C1670   1.404       .  A
C1670      C1671   1.408       .  A
C1670      H1675   1.084       .  S
C1671      C1672   1.418       .  A
C1672     Br1673   1.924       .  S
C1677      C1678   1.396       .  A
C1677      C1682   1.398       .  A
C1677      H1684   1.084       .  S
C1678      C1679   1.406       .  A
C1679      C1680   1.404       .  A
C1679     Br1686   1.917       .  S
C1680      C1681   1.411       .  A
C1680      H1685   1.083       .  S
C1681      C1682   1.419       .  A
C1682     Br1683   1.914       .  S
C1687      C1688   1.401       .  A
C1687      C1692   1.402       .  A
C1687      H1694   1.084       .  S
C1688      C1689   1.404       .  A
C1689      C1690   1.397       .  A
C1689     Br1696   1.918       .  S
C1690      C1691   1.406       .  A
C1690      H1695   1.083       .  S
C1691      C1692   1.415       .  A
C1692     Br1693   1.921       .  S
C1697      C1698   1.413       .  A
C1697      C1702   1.389   1_554  A
C1697      H1704   1.073   1_554  S
C1698      C1699   1.420       .  A
C1699      C1700   1.401       .  A
C1699     Br1706   1.925       .  S
C1700      C1701   1.405       .  A
C1700      H1705   1.075       .  S
C1701      C1702   1.400   1_554  A
C1702     Br1703   1.910       .  S
C1707      C1708   1.408       .  A
C1707      C1712   1.408       .  A
C1707      H1714   1.078       .  S
C1708      C1709   1.403   1_556  A
C1709      C1710   1.384   1_554  A
C1709     Br1716   1.909       .  S
C1710      C1711   1.405       .  A
C1710      H1715   1.083   1_556  S
C1711      C1712   1.412       .  A
C1712     Br1713   1.917       .  S
C1717      C1718   1.411       .  A
C1717      C1722   1.400       .  A
C1717      H1724   1.083       .  S
C1718      C1719   1.417       .  A
C1719      C1720   1.410   1_455  A
C1719     Br1726   1.919   1_455  S
C1720      C1721   1.405   1_655  A
C1720      H1725   1.083       .  S
C1721      C1722   1.405       .  A
C1722     Br1723   1.919       .  S
C1727      C1728   1.394       .  A
C1727      C1732   1.393       .  A
C1727      H1734   1.085       .  S
C1728      C1729   1.408       .  A
C1729      C1730   1.399       .  A
C1729     Br1736   1.910       .  S
C1730      C1731   1.405       .  A
C1730      H1735   1.081       .  S
C1731      C1732   1.418       .  A
C1732     Br1733   1.905   1_556  S
C1737      C1738   1.405       .  A
C1737      C1742   1.402       .  A
C1737      H1744   1.083       .  S
C1738      C1739   1.407       .  A
C1739      C1740   1.400       .  A
C1739     Br1746   1.919       .  S
C1740      C1741   1.406       .  A
C1740      H1745   1.083       .  S
C1741      C1742   1.409       .  A
C1742     Br1743   1.918       .  S
C1747      C1748   1.399       .  A
C1747      C1752   1.402       .  A
C1747      H1754   1.085       .  S
C1748      C1749   1.401       .  A
C1749      C1750   1.399       .  A
C1749     Br1756   1.917       .  S
C1750      C1751   1.417       .  A
C1750      H1755   1.084       .  S
C1751      C1752   1.422       .  A
C1752     Br1753   1.905       .  S
C1757      C1758   1.400       .  A
C1757      C1762   1.399       .  A
C1757      H1764   1.083       .  S
C1758      C1759   1.408       .  A
C1759      C1760   1.391       .  A
C1759     Br1766   1.920       .  S
C1760      C1761   1.400       .  A
C1760      H1765   1.084       .  S
C1761      C1762   1.409       .  A
C1762     Br1763   1.914       .  S
C1767      C1768   1.405       .  A
C1767      C1772   1.395       .  A
C1767      H1774   1.070       .  S
C1768      C1769   1.418       .  A
C1769      C1770   1.402       .  A
C1769     Br1776   1.917   1_554  S
C1770      C1771   1.399       .  A
C1770      H1775   1.084       .  S
C1771      C1772   1.406       .  A
C1772     Br1773   1.921       .  S
C1777      C1778   1.400       .  A
C1777      C1782   1.388       .  A
C1777      H1784   1.084       .  S
C1778      C1779   1.411       .  A
C1779      C1780   1.401       .  A
C1779     Br1786   1.915       .  S
C1780      C1781   1.402       .  A
C1780      H1785   1.081       .  S
C1781      C1782   1.405       .  A
C1782     Br1783   1.912       .  S
C1787      C1788   1.405       .  A
C1787      C1792   1.409       .  A
C1787      H1794   1.083       .  S
C1788      C1789   1.393       .  A
C1789      C1790   1.377       .  A
C1789     Br1796   1.925       .  S
C1790      C1791   1.419       .  A
C1790      H1795   1.078       .  S
C1791      C1792   1.422       .  A
C1792     Br1793   1.918       .  S
C1797      C1798   1.405       .  A
C1797      C1802   1.399   1_455  A
C1797      H1804   1.083       .  S
C1798      C1799   1.415   1_455  A
C1799      C1800   1.401       .  A
C1799     Br1806   1.919       .  S
C1800      C1801   1.403       .  A
C1800      H1805   1.083       .  S
C1801      C1802   1.412       .  A
C1802     Br1803   1.923   1_655  S
C1807      C1808   1.411       .  A
C1807      C1812   1.388       .  A
C1807      H1814   1.080       .  S
C1808      C1809   1.411       .  A
C1809      C1810   1.401       .  A
C1809     Br1816   1.909       .  S
C1810      C1811   1.406       .  A
C1810      H1815   1.083       .  S
C1811      C1812   1.408       .  A
C1812     Br1813   1.923       .  S
C1817      C1818   1.405       .  A
C1817      C1822   1.387       .  A
C1817      H1824   1.079       .  S
C1818      C1819   1.419       .  A
C1819      C1820   1.402       .  A
C1819     Br1826   1.918       .  S
C1820      C1821   1.405       .  A
C1820      H1825   1.083       .  S
C1821      C1822   1.411       .  A
C1822     Br1823   1.916       .  S
C1827      C1828   1.408       .  A
C1827      C1832   1.395       .  A
C1827      H1834   1.083       .  S
C1828      C1829   1.409       .  A
C1829      C1830   1.394       .  A
C1829     Br1836   1.914       .  S
C1830      C1831   1.397       .  A
C1830      H1835   1.084       .  S
C1831      C1832   1.406       .  A
C1832     Br1833   1.919       .  S
C1837      C1838   1.399       .  A
C1837      C1842   1.390       .  A
C1837      H1844   1.084       .  S
C1838      C1839   1.404       .  A
C1839      C1840   1.394       .  A
C1839     Br1846   1.920       .  S
C1840      C1841   1.405       .  A
C1840      H1845   1.083       .  S
C1841      C1842   1.406       .  A
C1842     Br1843   1.910       .  S
C1847      C1848   1.400   1_565  A
C1847      C1852   1.394       .  A
C1847      H1854   1.084       .  S
C1848      C1849   1.405       .  A
C1849      C1850   1.399   1_545  A
C1850      C1851   1.402       .  A
C1850      H1855   1.083       .  S
C1851      C1852   1.405       .  A
C1852     Br1853   1.914       .  S
