geometry optimzed in LAMMPS
_audit_creation_date              2020-11-30 
_audit_creation_method            'lammps2cif' 
_symmetry_space_group_name_H-M    'P1' 
_symmetry_Int_Tables_number       1 
_symmetry_cell_setting            triclinic 
loop_ 
_symmetry_equiv_pos_as_xyz 
  x,y,z 
_cell_length_a                    29.98225299 
_cell_length_b                    29.819341109091525 
_cell_length_c                    29.869480924008617 
_cell_angle_alpha                 89.8824899694429 
_cell_angle_beta                  89.66793449808073 
_cell_angle_gamma                 90.50678185565722 
loop_ 
_atom_site_label 
_atom_site_type_symbol 
_atom_site_fract_x 
_atom_site_fract_y 
_atom_site_fract_z 
_atom_site_charge 
C1          C  0.59709183  0.91719237  0.75955769     0.04600
C2          C  0.55706015  0.93034885  0.73963784    -0.11500
C3          C  0.53249470  0.90063361  0.71298671     0.02100
C4          C  0.55085734  0.85847735  0.70292495    -0.10100
C5          C  0.59201825  0.84558129  0.72149026     0.04600
C6          C  0.61496558  0.87512435  0.74977280    -0.09500
H7          H  0.54286491  0.96243270  0.74866870     0.10200
H8          H  0.53112025  0.83395180  0.68481076     0.07700
H9          H  0.64441253  0.86387451  0.76725370     0.07600
C10         C  0.59887836  0.16238994  0.95165847     0.04600
C11         C  0.61342847  0.20735353  0.95037185    -0.11500
C12         C  0.58232703  0.24198099  0.95334592     0.02100
C13         C  0.53686102  0.23143868  0.95835437    -0.10100
C14         C  0.52213118  0.18674194  0.96184428     0.04600
C15         C  0.55338364  0.15233423  0.95920576    -0.09500
H16         H  0.64824457  0.21524783  0.94402241     0.10200
H17         H  0.51264584  0.25827039  0.95912662     0.07700
H18         H  0.54173356  0.11785004  0.95823851     0.07600
C19         C  0.86292203  0.68917566  0.70935033     0.04600
C20         C  0.87329220  0.67889414  0.66459365    -0.11500
C21         C  0.83974862  0.66643061  0.63468266     0.02100
C22         C  0.79543985  0.66369894  0.65017471    -0.10100
C23         C  0.78449624  0.67462128  0.69466920     0.04600
C24         C  0.81841689  0.68717831  0.72436756    -0.09500
H25         H  0.90729337  0.68279826  0.65254125     0.10200
H26         H  0.76894560  0.65568822  0.62688034     0.07700
H27         H  0.81010787  0.69731646  0.75819697     0.07600
C28         C  0.11818165  0.86815670  0.70168718     0.04600
C29         C  0.16137292  0.87877338  0.71633570    -0.11500
C30         C  0.18956136  0.90607211  0.68989558     0.02100
C31         C  0.17337382  0.92297257  0.64873136    -0.10100
C32         C  0.13044113  0.91138075  0.63321087     0.04600
C33         C  0.10289836  0.88495743  0.66066454    -0.09500
H34         H  0.17363317  0.86395747  0.74702369     0.10200
H35         H  0.19562189  0.94182944  0.62689822     0.07700
H36         H  0.07019317  0.87477558  0.64879799     0.07600
C37         C  0.60531623  0.69068507  0.47162454     0.04600
C38         C  0.65005590  0.68943215  0.45692448    -0.11500
C39         C  0.68371076  0.67670836  0.48686855     0.02100
C40         C  0.67221677  0.66771462  0.53179266    -0.10100
C41         C  0.62798166  0.67037374  0.54686822     0.04600
C42         C  0.59449886  0.68031796  0.51634497    -0.09500
H43         H  0.65847966  0.69855224  0.42273486     0.10200
H44         H  0.69820445  0.66053408  0.55582807     0.07700
H45         H  0.56050546  0.68422628  0.52824657     0.07600
C46         C  0.34405267  0.86031133  0.47124435     0.04600
C47         C  0.36001811  0.87707494  0.51194840    -0.11500
C48         C  0.33430706  0.90588248  0.53814027     0.02100
C49         C  0.29250489  0.91945948  0.52189197    -0.10100
C50         C  0.27548372  0.90239271  0.48114658     0.04600
C51         C  0.30185922  0.87285737  0.45579531    -0.09500
H52         H  0.39200050  0.86570470  0.52423205     0.10200
H53         H  0.27162806  0.94029899  0.54284401     0.07700
H54         H  0.28907765  0.85832163  0.42515129     0.07600
C55         C  0.61115823  0.66050380  0.97163275     0.04600
C56         C  0.60524028  0.61410837  0.97861838    -0.11500
C57         C  0.60552251  0.58445417  0.94261845     0.02100
C58         C  0.61009315  0.60133984  0.89904818    -0.10100
C59         C  0.61361438  0.64759098  0.89090283     0.04600
C60         C  0.61412361  0.67740163  0.92741350    -0.09500
H61         H  0.60469798  0.60060606  0.01234431     0.10200
H62         H  0.61077331  0.57814603  0.87108426     0.07700
H63         H  0.61904734  0.71299859  0.92165218     0.07600
C64         C  0.79133823  0.65359942  0.22357991     0.04600
C65         C  0.81182345  0.61517602  0.20626469    -0.11500
C66         C  0.84247701  0.59086080  0.23149390     0.02100
C67         C  0.85572822  0.60803148  0.27326105    -0.10100
C68         C  0.83620175  0.64728963  0.29106654     0.04600
C69         C  0.80403859  0.67003701  0.26566181    -0.09500
H70         H  0.80090821  0.60214804  0.17424364     0.10200
H71         H  0.87810726  0.58848409  0.29371147     0.07700
H72         H  0.78697156  0.69872071  0.27958420     0.07600
Zn73       Zn  0.64382979  0.37007789  0.98739015     1.49700
Zn74       Zn  0.65170199  0.45004227  0.92000921     1.49400
Zn75       Zn  0.57190477  0.38003109  0.91079058     1.49100
Zn76       Zn  0.57121940  0.44986758  0.99327815     1.49500
O77         O  0.60911891  0.41287465  0.95316573    -1.82700
O78         O  0.70972121  0.37749801  0.97810704    -0.73300
O79         O  0.64373346  0.44311670  0.85365775    -0.73100
O80         O  0.57657546  0.31353819  0.92026272    -0.72600
O81         O  0.71627159  0.44132864  0.93991233    -0.73300
O82         O  0.62345016  0.30591282  0.97726275    -0.72900
O83         O  0.58381948  0.39909554  0.84602849    -0.73500
O84         O  0.50465359  0.43253418  0.98595289    -0.72900
O85         O  0.63611964  0.51390144  0.92830195    -0.73600
O86         O  0.50754153  0.38924576  0.92538001    -0.73000
O87         O  0.57963922  0.51634532  0.97697583    -0.73500
O88         O  0.59002664  0.44042826  0.05882118    -0.73400
O89         O  0.63799300  0.38417515  0.05216426    -0.73200
C90         C  0.73336305  0.40957818  0.96252514     0.78600
C91         C  0.61373481  0.42502378  0.82945751     0.79100
C92         C  0.59580858  0.28938749  0.94944047     0.78100
C93         C  0.48552830  0.40811785  0.95646361     0.78400
C94         C  0.60700555  0.53568234  0.95007755     0.79600
C95         C  0.61742719  0.41270948  0.07589582     0.78600
Zn96       Zn  0.39579740  0.88075041  0.66835182     1.49700
Zn97       Zn  0.32239061  0.87993380  0.74835293     1.49400
Zn98       Zn  0.40103914  0.95332207  0.74498562     1.49100
Zn99       Zn  0.32384016  0.95883026  0.67331855     1.49500
O100        O  0.36032415  0.91794230  0.70888824    -1.82700
O101        O  0.39000576  0.81645198  0.68664597    -0.73300
O102        O  0.32692369  0.90180742  0.81398322    -0.73100
O103        O  0.46437772  0.93396973  0.73489618    -0.72600
O104        O  0.34404254  0.81437546  0.74531565    -0.73300
O105        O  0.46294758  0.89015096  0.67481868    -0.72900
O106        O  0.38566370  0.94766571  0.80990005    -0.73500
O107        O  0.33603115  0.02431403  0.68985588    -0.72900
O108        O  0.25715163  0.88410268  0.72691826    -0.73600
O109        O  0.39394315  0.01955926  0.73581829    -0.73000
O110        O  0.25893064  0.94430749  0.68270182    -0.73500
O111        O  0.32937976  0.94674655  0.60670811    -0.73400
O112        O  0.37373588  0.88735504  0.60461193    -0.73200
C113        C  0.37119008  0.79502210  0.71851979     0.78600
C114        C  0.35469857  0.92874244  0.83245468     0.79100
C115        C  0.48430969  0.90943718  0.70627129     0.78100
C116        C  0.36475009  0.04262576  0.71564626     0.78400
C117        C  0.23753371  0.91219532  0.70133870     0.79600
C118        C  0.34733037  0.91458893  0.58531447     0.78600
C119        C  0.09500519  0.67868120  0.40731188     0.04600
C120        C  0.11013161  0.72167306  0.41898551    -0.11500
C121        C  0.08340333  0.74944719  0.44576249     0.02100
C122        C  0.04179916  0.73308380  0.46140069    -0.10100
C123        C  0.02568401  0.69056448  0.44854317     0.04600
C124        C  0.05286259  0.66349186  0.42181200    -0.09500
H125        H  0.14179189  0.73390618  0.40596257     0.10200
H126        H  0.02022638  0.75503105  0.48041815     0.07700
H127        H  0.04067643  0.63101267  0.41083023     0.07600
C128        C  0.09768542  0.41800126  0.24110900     0.04600
C129        C  0.11162761  0.37355914  0.23489162    -0.11500
C130        C  0.08238359  0.34189452  0.21583158     0.02100
C131        C  0.03907676  0.35544759  0.20362092    -0.10100
C132        C  0.02418469  0.39925770  0.21206363     0.04600
C133        C  0.05397242  0.43038089  0.23034753    -0.09500
H134        H  0.14473624  0.36373294  0.24517423     0.10200
H135        H  0.01571754  0.33086382  0.19058750     0.07700
H136        H  0.04281101  0.46411203  0.23755128     0.07600
Zn137      Zn  0.89361891  0.63230684  0.42298204     1.49700
Zn138      Zn  0.89115708  0.70346097  0.50193815     1.49400
Zn139      Zn  0.81501807  0.70640419  0.42491860     1.49100
Zn140      Zn  0.81799669  0.62735930  0.49728686     1.49500
O141        O  0.85431210  0.66787629  0.46145295    -1.82700
O142        O  0.95847489  0.65177346  0.42935568    -0.73300
O143        O  0.88299260  0.76853532  0.48838667    -0.73100
O144        O  0.81787911  0.68583991  0.35932861    -0.72600
O145        O  0.95701847  0.69688182  0.48853560    -0.73300
O146        O  0.87601282  0.64010053  0.35897269    -0.72900
O147        O  0.83687852  0.77180684  0.43028540    -0.73500
O148        O  0.75410418  0.64338170  0.49265889    -0.72900
O149        O  0.87535954  0.69147907  0.56747477    -0.73600
O150        O  0.74933185  0.70141752  0.44630049    -0.73000
O151        O  0.82794602  0.63386139  0.56339912    -0.73500
O152        O  0.82452122  0.56415940  0.47595462    -0.73400
O153        O  0.88347813  0.56522039  0.43051256    -0.73200
C154        C  0.97818869  0.67814748  0.45662649     0.78600
C155        C  0.86364063  0.79073933  0.45780908     0.79100
C156        C  0.84424440  0.65933919  0.33869293     0.78100
C157        C  0.73130629  0.67354860  0.47365295     0.78400
C158        C  0.84913273  0.66300505  0.58614725     0.79600
C159        C  0.85130390  0.54422773  0.44952456     0.78600
C160        C  0.85340811  0.37547325  0.96447566     0.04600
C161        C  0.81109475  0.38549417  0.94775322    -0.11500
C162        C  0.78108142  0.41017979  0.97380672     0.02100
C163        C  0.79412038  0.42552870  0.01647634    -0.10100
C164        C  0.83645529  0.41512301  0.03377854     0.04600
C165        C  0.86607677  0.39088915  0.00695722    -0.09500
H166        H  0.80025136  0.37086883  0.91640223     0.10200
H167        H  0.76969926  0.44165170  0.03782684     0.07700
H168        H  0.89805536  0.38099305  0.02041927     0.07600
C169        C  0.10214810  0.19021426  0.95993007     0.04600
C170        C  0.09047404  0.18194106  0.00483365    -0.11500
C171        C  0.12268951  0.16906261  0.03575918     0.02100
C172        C  0.16708404  0.16400135  0.02107445    -0.10100
C173        C  0.17933081  0.17261575  0.97624878     0.04600
C174        C  0.14659204  0.18553909  0.94559976    -0.09500
H175        H  0.05655650  0.18772396  0.01611363     0.10200
H176        H  0.19275232  0.15585009  0.04511675     0.07700
H177        H  0.15597558  0.19445003  0.91160658     0.07600
Zn178      Zn  0.89299245  0.45498731  0.24532529     1.49700
Zn179      Zn  0.81783653  0.45996601  0.17074119     1.49400
Zn180      Zn  0.88765755  0.38221210  0.16709089     1.49100
Zn181      Zn  0.81328539  0.38135855  0.24487198     1.49500
O182        O  0.85290828  0.41951021  0.20734601    -1.82700
O183        O  0.88282775  0.52216587  0.23856639    -0.73300
O184        O  0.82742939  0.45242560  0.10392322    -0.73100
O185        O  0.95368886  0.39027262  0.17716079    -0.72600
O186        O  0.82531734  0.52379667  0.19194488    -0.73300
O187        O  0.95783742  0.43659591  0.23543312    -0.72900
O188        O  0.86993232  0.39176319  0.10207798    -0.73500
O189        O  0.83426999  0.31597937  0.24253409    -0.72900
O190        O  0.75372249  0.44317627  0.17616694    -0.73600
O191        O  0.87976160  0.31751405  0.18348152    -0.73000
O192        O  0.74866691  0.38520208  0.22292031    -0.73500
O193        O  0.81518950  0.40327901  0.30958616    -0.73400
O194        O  0.87605641  0.44641173  0.31018295    -0.73200
C195        C  0.85174408  0.54350075  0.21905863     0.78600
C196        C  0.84593631  0.42081802  0.08224675     0.79100
C197        C  0.97625076  0.41015054  0.20733473     0.78100
C198        C  0.86075784  0.29628663  0.21539657     0.78400
C199        C  0.73092176  0.41255303  0.19543123     0.79600
C200        C  0.84277294  0.42854005  0.33032702     0.78600
C201        C  0.34810006  0.21444043  0.19654165     0.04600
C202        C  0.30429520  0.20631217  0.21149119    -0.11500
C203        C  0.27442739  0.18190042  0.18467508     0.02100
C204        C  0.28924268  0.16591951  0.14262902    -0.10100
C205        C  0.33291936  0.17442800  0.12717597     0.04600
C206        C  0.36232812  0.19796500  0.15479557    -0.09500
H207        H  0.29305336  0.22067053  0.24287156     0.10200
H208        H  0.26569638  0.14997775  0.12015624     0.07700
H209        H  0.39512684  0.20721210  0.14207742     0.07600
C210        C  0.60605142  0.38925453  0.19935289     0.04600
C211        C  0.59433840  0.39996609  0.15511717    -0.11500
C212        C  0.62704724  0.41289848  0.12417749     0.02100
C213        C  0.67131633  0.41762942  0.13835745    -0.10100
C214        C  0.68348419  0.40810229  0.18281529     0.04600
C215        C  0.65070656  0.39283001  0.21309559    -0.09500
H216        H  0.56037893  0.39444422  0.14390027     0.10200
H217        H  0.69679439  0.42681273  0.11399018     0.07700
H218        H  0.65979258  0.38343429  0.24690856     0.07600
C219        C  0.32926329  0.92470293  0.95766765     0.04600
C220        C  0.34075144  0.96875387  0.97007167    -0.11500
C221        C  0.35500471  0.99975556  0.93791762     0.02100
C222        C  0.36065235  0.98553437  0.89341874    -0.10100
C223        C  0.35030913  0.94117021  0.88042338     0.04600
C224        C  0.33354806  0.91103505  0.91277865    -0.09500
H225        H  0.33437491  0.97999269  0.00401112     0.10200
H226        H  0.37068927  0.00995662  0.86827061     0.07700
H227        H  0.32329044  0.87748381  0.90312222     0.07600
C228        C  0.15124605  0.93075925  0.21685701     0.04600
C229        C  0.14200998  0.91571834  0.26055424    -0.11500
C230        C  0.11546808  0.94169813  0.28945053     0.02100
C231        C  0.09807210  0.98260876  0.27359686    -0.10100
C232        C  0.10890919  0.99872079  0.23058469     0.04600
C233        C  0.13460957  0.97197285  0.20221196    -0.09500
H234        H  0.15679575  0.88487999  0.27240082     0.10200
H235        H  0.07971633  0.00405102  0.29627467     0.07700
H236        H  0.14404144  0.98438876  0.16926588     0.07600
Zn237      Zn  0.38898625  0.20489302  0.91316252     1.49700
Zn238      Zn  0.38774259  0.13295333  0.99511237     1.49400
Zn239      Zn  0.31679510  0.21446269  0.98979436     1.49100
Zn240      Zn  0.30946773  0.13542211  0.91968448     1.49500
O241        O  0.35113335  0.17137950  0.95497254    -1.82700
O242        O  0.45222503  0.19685359  0.92933009    -0.73300
O243        O  0.36759960  0.14216222  0.06154128    -0.73100
O244        O  0.33600850  0.27928705  0.97830830    -0.72600
O245        O  0.45447268  0.15110207  0.98826877    -0.73300
O246        O  0.38328258  0.27125875  0.92126405    -0.72900
O247        O  0.32397781  0.20184407  0.05459662    -0.73500
O248        O  0.24425358  0.14506849  0.93864633    -0.72900
O249        O  0.38014297  0.06636622  0.97611201    -0.73600
O250        O  0.25089501  0.20477305  0.98282673    -0.73000
O251        O  0.32496703  0.07102879  0.92666109    -0.73500
O252        O  0.31947300  0.14341598  0.85326675    -0.73400
O253        O  0.38074771  0.18584992  0.84832121    -0.73200
C254        C  0.47380313  0.17708487  0.95987624     0.78600
C255        C  0.34239652  0.17220843  0.07860697     0.79100
C256        C  0.36363367  0.29570029  0.94996691     0.78100
C257        C  0.22715659  0.17453633  0.96436412     0.78400
C258        C  0.35362539  0.04824299  0.94782463     0.79600
C259        C  0.35095957  0.16116942  0.83034922     0.78600
C260        C  0.15949830  0.16107129  0.44954892     0.04600
C261        C  0.14391157  0.11931966  0.46502545    -0.11500
C262        C  0.11684334  0.09213877  0.43821571     0.02100
C263        C  0.10436597  0.10815753  0.39571162    -0.10100
C264        C  0.12083305  0.14963359  0.37904470     0.04600
C265        C  0.14834458  0.17607957  0.40654167    -0.09500
H266        H  0.15456682  0.10724512  0.49753121     0.10200
H267        H  0.08488831  0.08654061  0.37408873     0.07700
H268        H  0.16213641  0.20751054  0.39419449     0.07600
C269        C  0.33677557  0.16563173  0.70485758     0.04600
C270        C  0.34007194  0.17983063  0.74950498    -0.11500
C271        C  0.35422033  0.14976020  0.78250307     0.02100
C272        C  0.36560363  0.10571881  0.77040329    -0.10100
C273        C  0.36165669  0.09104950  0.72583804     0.04600
C274        C  0.34770094  0.12143587  0.69322722    -0.09500
H275        H  0.32883809  0.21296250  0.75888612     0.10200
H276        H  0.37446772  0.08197285  0.79633985     0.07700
H277        H  0.34245002  0.10994976  0.65922468     0.07600
Zn278      Zn  0.06701876  0.20587261  0.16726538     1.49700
Zn279      Zn  0.14005921  0.12984763  0.17388491     1.49400
Zn280      Zn  0.14228603  0.20999708  0.24494802     1.49100
Zn281      Zn  0.06323827  0.13528318  0.24700828     1.49500
O282        O  0.10325311  0.17074828  0.20850636    -1.82700
O283        O  0.08471131  0.19412973  0.10177311    -0.73300
O284        O  0.20465459  0.14487479  0.17978775    -0.73100
O285        O  0.12093014  0.27544898  0.23935401    -0.72600
O286        O  0.13237934  0.13770782  0.10782208    -0.73300
O287        O  0.07517700  0.27115038  0.18100417    -0.72900
O288        O  0.20749721  0.20567353  0.22254225    -0.73500
O289        O  0.08147103  0.14208414  0.31095091    -0.72900
O290        O  0.13030193  0.06592612  0.19341692    -0.73600
O291        O  0.13948888  0.18906154  0.31088516    -0.73000
O292        O  0.07123765  0.06842928  0.23868251    -0.73500
O293        O  0.99872000  0.15472552  0.24055885    -0.73400
O294        O  0.00056086  0.19842644  0.18010537    -0.73200
C295        C  0.11184488  0.16627021  0.08416121     0.78600
C296        C  0.22655456  0.17701105  0.19714787     0.79100
C297        C  0.09438528  0.29384656  0.21150027     0.78100
C298        C  0.11316518  0.16177518  0.33135928     0.78400
C299        C  0.10216365  0.04657864  0.21932697     0.79600
C300        C  0.97916870  0.18010559  0.21247705     0.78600
C301        C  0.86154067  0.91301393  0.42214220     0.04600
C302        C  0.84740280  0.86880343  0.43041837    -0.11500
C303        C  0.87559132  0.83892519  0.45280967     0.02100
C304        C  0.91805000  0.85415069  0.46689880    -0.10100
C305        C  0.93333647  0.89785626  0.45690941     0.04600
C306        C  0.90447385  0.92714376  0.43486316    -0.09500
H307        H  0.81500620  0.85761931  0.41876503     0.10200
H308        H  0.94070001  0.83076725  0.48245558     0.07700
H309        H  0.91583311  0.96068769  0.42620940     0.07600
C310        C  0.86048920  0.17582037  0.25745113     0.04600
C311        C  0.84551635  0.21907695  0.24709731    -0.11500
C312        C  0.87305864  0.24866090  0.22247002     0.02100
C313        C  0.91549817  0.23400763  0.20808228    -0.10100
C314        C  0.93144822  0.19138461  0.21986086     0.04600
C315        C  0.90343163  0.16247155  0.24430892    -0.09500
H316        H  0.81314551  0.22986734  0.25902272     0.10200
H317        H  0.93763935  0.25715790  0.19067431     0.07700
H318        H  0.91540944  0.12975158  0.25428172     0.07600
Zn319      Zn  0.14257573  0.88260287  0.42176131     1.49700
Zn320      Zn  0.14391417  0.96006232  0.49633174     1.49400
Zn321      Zn  0.06481943  0.95623820  0.42514735     1.49100
Zn322      Zn  0.07054352  0.88253744  0.50214582     1.49500
O323        O  0.10546892  0.92025727  0.46124499    -1.82700
O324        O  0.20764463  0.88449096  0.44239114    -0.73300
O325        O  0.13643178  0.02483534  0.47637498    -0.73100
O326        O  0.07925844  0.94879926  0.35984025    -0.72600
O327        O  0.20801945  0.94276875  0.48857470    -0.73300
O328        O  0.13827164  0.90430609  0.35673888    -0.72900
O329        O  0.07650154  0.02297143  0.43268090    -0.73500
O330        O  0.00379343  0.88986283  0.49291927    -0.72900
O331        O  0.13694629  0.95038846  0.56337840    -0.73600
O332        O  0.99992948  0.93716286  0.43535536    -0.73000
O333        O  0.09127845  0.89122287  0.56663317    -0.73500
O334        O  0.07751273  0.81777102  0.48561833    -0.73400
O335        O  0.12069166  0.81769904  0.42486068    -0.73200
C336        C  0.22817577  0.91079279  0.46916856     0.78600
C337        C  0.10868618  0.04444023  0.45072866     0.79100
C338        C  0.11034942  0.93013511  0.33766596     0.78100
C339        C  0.98128353  0.90985319  0.46285005     0.78400
C340        C  0.11800634  0.91889712  0.58553972     0.79600
C341        C  0.09537723  0.79724802  0.45288425     0.78600
C342        C  0.36074531  0.42257500  0.94408894     0.04600
C343        C  0.34604948  0.37769181  0.94544631    -0.11500
C344        C  0.37679077  0.34331896  0.95240929     0.02100
C345        C  0.42211507  0.35412927  0.95811185    -0.10100
C346        C  0.43701238  0.39888116  0.95822171     0.04600
C347        C  0.40599037  0.43309925  0.95200176    -0.09500
H348        H  0.31157496  0.36946961  0.93815695     0.10200
H349        H  0.44619015  0.32738651  0.96151944     0.07700
H350        H  0.41767243  0.46745105  0.94884073     0.07600
C351        C  0.37479834  0.67524188  0.76295303     0.04600
C352        C  0.35864507  0.71812979  0.75246708    -0.11500
C353        C  0.38437447  0.74756255  0.72570174     0.02100
C354        C  0.42657989  0.73334016  0.71013674    -0.10100
C355        C  0.44281147  0.69061492  0.72069134     0.04600
C356        C  0.41608504  0.66133714  0.74565083    -0.09500
H357        H  0.32744717  0.72923637  0.76694490     0.10200
H358        H  0.44851743  0.75676674  0.69281719     0.07700
H359        H  0.42943977  0.62914728  0.75554321     0.07600
C360        C  0.78878138  0.43448603  0.44561479     0.04600
C361        C  0.80148957  0.41800503  0.40345762    -0.11500
C362        C  0.83439104  0.44066422  0.37790743     0.02100
C363        C  0.85457650  0.47977557  0.39560240    -0.10100
C364        C  0.84114326  0.49704410  0.43727179     0.04600
C365        C  0.80954180  0.47309087  0.46256096    -0.09500
H366        H  0.78425224  0.38909221  0.38980557     0.10200
H367        H  0.87763319  0.49917016  0.37509925     0.07700
H368        H  0.79859571  0.48621789  0.49458065     0.07600
C369        C  0.61113348  0.42587959  0.70201255     0.04600
C370        C  0.61227609  0.40944720  0.74630156    -0.11500
C371        C  0.61090699  0.43957079  0.78236512     0.02100
C372        C  0.60851362  0.48578411  0.77380885    -0.10100
C373        C  0.60578700  0.50233583  0.73001498     0.04600
C374        C  0.60622200  0.47222005  0.69427187    -0.09500
H375        H  0.61669309  0.37394281  0.75251019     0.10200
H376        H  0.60879322  0.50919889  0.80161573     0.07700
H377        H  0.60701863  0.48519889  0.66034822     0.07600
Zn378      Zn  0.65496541  0.63708449  0.75227266     1.49700
Zn379      Zn  0.57372930  0.63733307  0.68025381     1.49400
Zn380      Zn  0.57911326  0.70838125  0.76245343     1.49100
Zn381      Zn  0.64762548  0.71634567  0.68199689     1.49500
O382        O  0.61356781  0.67423375  0.71890321    -1.82700
O383        O  0.63868608  0.57279977  0.74301134    -0.73300
O384        O  0.50828915  0.65659795  0.68936030    -0.73100
O385        O  0.58926490  0.68935458  0.82737547    -0.72600
O386        O  0.58047788  0.57078030  0.69694599    -0.73300
O387        O  0.64655411  0.64322795  0.81906584    -0.72900
O388        O  0.51462041  0.70141112  0.74865201    -0.73500
O389        O  0.62699182  0.78084569  0.69083627    -0.72900
O390        O  0.59103290  0.64486474  0.61383523    -0.76800
O391        O  0.58773673  0.77427931  0.75409562    -0.73000
O392        O  0.64063963  0.70058349  0.61789242    -0.73500
O393        O  0.71385866  0.70823964  0.68955506    -0.73400
O394        O  0.71952618  0.64737451  0.73249975    -0.73200
C395        C  0.60839777  0.55117622  0.72239446     0.78600
C396        C  0.49112385  0.68231645  0.71887819     0.79100
C397        C  0.61758475  0.66232175  0.84372158     0.78100
C398        C  0.60361409  0.79787289  0.72218227     0.78400
C399        C  0.61897753  0.67176573  0.59536450     0.79600
C400        C  0.73703843  0.67741053  0.70733731     0.78600
C401        C  0.68858126  0.37417563  0.61974034     0.14100
C402        C  0.66421007  0.37988238  0.57999850     0.01100
C403        C  0.61812608  0.38811890  0.58303149     0.16100
C404        C  0.59847716  0.39741635  0.62457148     0.25500
C405        C  0.62450016  0.39779388  0.66355017    -0.40800
C406        C  0.66869443  0.38264379  0.66126486     0.32500
C407        C  0.68870788  0.38800141  0.53730012     0.01200
F408        F  0.59328950  0.39186968  0.54536163    -0.13100
F409        F  0.69452862  0.38231401  0.69846072    -0.13700
C410        C  0.72158187  0.35815191  0.52195786     0.16100
C411        C  0.75253558  0.37179799  0.48912295     0.25500
C412        C  0.75067157  0.41524191  0.47106720    -0.40800
C413        C  0.71518782  0.44330808  0.48319767     0.32500
C414        C  0.68477393  0.43005366  0.51621373     0.14200
F415        F  0.72543034  0.31692797  0.54081745    -0.13100
F416        F  0.71200730  0.48512558  0.46539826    -0.13700
F417        F  0.78642719  0.34409685  0.47776781    -0.15900
F418        F  0.65423981  0.46026464  0.53058583    -0.14500
F419        F  0.73312714  0.36644049  0.61824857    -0.14500
F420        F  0.55530562  0.41071079  0.62623542    -0.15900
C421        C  0.31301145  0.49612821  0.85590691     0.14100
C422        C  0.31063798  0.53686021  0.87936529     0.01100
C423        C  0.31225991  0.53628644  0.92642569     0.16100
C424        C  0.32368213  0.49693841  0.94900311     0.25500
C425        C  0.33236809  0.45770138  0.92475690    -0.40800
C426        C  0.32373191  0.45666822  0.87856143     0.32500
C427        C  0.32088399  0.57897848  0.85502464     0.01200
F428        F  0.30859828  0.57508178  0.94982019    -0.13100
F429        F  0.33186131  0.41900848  0.85445436    -0.13700
C430        C  0.29431894  0.59423638  0.81950285     0.16100
C431        C  0.31024799  0.62828155  0.79087600     0.25500
C432        C  0.35300448  0.64677259  0.79733661    -0.40800
C433        C  0.37793880  0.63364811  0.83474217     0.32500
C434        C  0.36226993  0.59989342  0.86300653     0.14200
F435        F  0.25418854  0.57461472  0.81126858    -0.13100
F436        F  0.41895792  0.65172137  0.84235055    -0.13700
F437        F  0.28542264  0.64093019  0.75523475    -0.15900
F438        F  0.38948916  0.58485957  0.89590436    -0.14500
F439        F  0.31150033  0.49563680  0.81047400    -0.14500
F440        F  0.33080649  0.49822864  0.99381947    -0.15900
C441        C  0.82667059  0.98693505  0.32775622     0.14100
C442        C  0.80510814  0.02147907  0.35135070     0.01100
C443        C  0.79310192  0.01434120  0.39645216     0.16100
C444        C  0.80779069  0.97607502  0.41904396     0.25500
C445        C  0.83385121  0.94433608  0.39652630    -0.40800
C446        C  0.84093801  0.94861406  0.35029133     0.32500
C447        C  0.80607700  0.06748531  0.33233367     0.01200
F448        F  0.77093960  0.04643183  0.41958511    -0.13100
F449        F  0.86578894  0.91792803  0.32800593    -0.13700
C450        C  0.78959042  0.07621880  0.28917354     0.16100
C451        C  0.80358262  0.11473555  0.26581652     0.25500
C452        C  0.83390558  0.14481476  0.28553934    -0.40800
C453        C  0.84628062  0.13864985  0.33028238     0.32500
C454        C  0.83246887  0.10035069  0.35357915     0.14200
F455        F  0.76297962  0.04571682  0.26841676    -0.13100
F456        F  0.87548253  0.16750593  0.34987698    -0.13700
F457        F  0.79084549  0.12057762  0.22267356    -0.15900
F458        F  0.84932850  0.09296948  0.39502243    -0.14500
F459        F  0.83884256  0.99262297  0.28423908    -0.14500
F460        F  0.80013265  0.97198667  0.46371156    -0.15900
C461        C  0.20216879  0.23305897  0.54305428     0.14100
C462        C  0.24430860  0.21384009  0.54975113     0.01100
C463        C  0.26126621  0.18397944  0.51757739     0.16100
C464        C  0.23476804  0.17019432  0.48184807     0.25500
C465        C  0.19108232  0.18603543  0.47775848    -0.40800
C466        C  0.17555128  0.21899528  0.50728970     0.32500
C467        C  0.26583444  0.21584583  0.59414976     0.01200
F468        F  0.30137484  0.16407652  0.52356399    -0.13100
F469        F  0.13319234  0.23429667  0.50393734    -0.13700
C470        C  0.24283038  0.19756472  0.63120595     0.16100
C471        C  0.26587200  0.18608323  0.66985625     0.25500
C472        C  0.31220747  0.19211911  0.67186148    -0.40800
C473        C  0.33473416  0.21408943  0.63670815     0.32500
C474        C  0.31150103  0.22636830  0.59808570     0.14200
F475        F  0.19913102  0.18566753  0.62807693    -0.13100
F476        F  0.37961341  0.22022800  0.63833509    -0.13700
F477        F  0.24386646  0.16405989  0.70328686    -0.15900
F478        F  0.33415953  0.24496442  0.56310883    -0.14500
F479        F  0.18535107  0.26234666  0.57338382    -0.14500
F480        F  0.25007176  0.13798657  0.45373216    -0.15900
C481        C  0.30480625  0.86917995  0.06753510     0.14100
C482        C  0.25842585  0.87579380  0.07012124     0.01100
C483        C  0.23526715  0.88788982  0.03108972     0.16100
C484        C  0.25864390  0.89807977  0.99173615     0.25500
C485        C  0.30539739  0.89701603  0.99105217    -0.40800
C486        C  0.32824616  0.88036199  0.02835002     0.32500
C487        C  0.23592344  0.88037763  0.11425243     0.01200
F488        F  0.19067293  0.89537396  0.03247259    -0.13100
F489        F  0.37349753  0.87902757  0.02814781    -0.13700
C490        C  0.25171359  0.91308044  0.14435306     0.16100
C491        C  0.22545588  0.92638317  0.18057532     0.25500
C492        C  0.18296255  0.90742527  0.18734952    -0.40800
C493        C  0.16835427  0.87252598  0.15944714     0.32500
C494        C  0.19482093  0.85884956  0.12319034     0.14200
F495        F  0.29052419  0.93554864  0.13615713    -0.13100
F496        F  0.12700468  0.85441639  0.16509520    -0.13700
F497        F  0.23977752  0.96072589  0.20678399    -0.15900
F498        F  0.17905237  0.82678478  0.09507546    -0.14500
F499        F  0.32779093  0.85601138  0.10424985    -0.14500
F500        F  0.23607340  0.91460939  0.95611782    -0.15900
C501        C  0.41991586  0.31585148  0.21416825     0.14100
C502        C  0.44841609  0.30118628  0.24840998     0.01100
C503        C  0.43821974  0.26091604  0.27114385     0.16100
C504        C  0.40277880  0.23364944  0.25673684     0.25500
C505        C  0.37718688  0.24670824  0.21982710    -0.40800
C506        C  0.38450946  0.28889539  0.20021943     0.32500
C507        C  0.49274732  0.32306287  0.25274453     0.01200
F508        F  0.46453749  0.24657117  0.30502428    -0.13100
F509        F  0.35957958  0.30224899  0.16486048    -0.13700
C510        C  0.49625702  0.36999380  0.25669074     0.16100
C511        C  0.53549838  0.39215492  0.24345280     0.25500
C512        C  0.57201446  0.36748759  0.22778206    -0.40800
C513        C  0.57052104  0.32051248  0.22952611     0.32500
C514        C  0.53103738  0.29836478  0.24158989     0.14200
F515        F  0.46021970  0.39450598  0.26883106    -0.13100
F516        F  0.60540064  0.29620018  0.21394876    -0.13700
F517        F  0.53648061  0.43765972  0.24186481    -0.15900
F518        F  0.52867779  0.25315583  0.23656843    -0.14500
F519        F  0.42915058  0.35396678  0.19079193    -0.14500
F520        F  0.39567943  0.19311292  0.27639541    -0.15900
C521        C  0.99155044  0.21154108  0.90743549     0.14100
C522        C  0.99130648  0.25872374  0.90885291     0.01100
C523        C  0.03163578  0.28202689  0.91621734     0.16100
C524        C  0.07017046  0.25862224  0.92714614     0.25500
C525        C  0.06871785  0.21180804  0.93151081    -0.40800
C526        C  0.02993001  0.18819541  0.91945688     0.32500
C527        C  0.94874847  0.28301835  0.91431742     0.01200
F528        F  0.03245613  0.32748328  0.91886155    -0.13100
F529        F  0.02799934  0.14287758  0.92372756    -0.13700
C530        C  0.92060111  0.27133998  0.95046467     0.16100
C531        C  0.88709889  0.30027069  0.96423578     0.25500
C532        C  0.88140452  0.34158376  0.94261862    -0.40800
C533        C  0.90668399  0.35180477  0.90420501     0.32500
C534        C  0.94020347  0.32250712  0.88997195     0.14200
F535        F  0.92831439  0.23411940  0.97543803    -0.13100
F536        F  0.90114990  0.39145891  0.88263638    -0.13700
F537        F  0.86223680  0.28952059  0.00095400    -0.15900
F538        F  0.96622510  0.33400893  0.85434373    -0.14500
F539        F  0.95337170  0.18824448  0.89914669    -0.14500
F540        F  0.10717137  0.28198918  0.93952018    -0.15900
C541        C  0.13542539  0.49582124  0.33068054     0.14100
C542        C  0.15167603  0.53213750  0.30493932     0.01100
C543        C  0.15947627  0.52597190  0.25886193     0.16100
C544        C  0.14634131  0.48593292  0.23814051     0.25500
C545        C  0.12598430  0.45158229  0.26341183    -0.40800
C546        C  0.12276545  0.45582852  0.31000338     0.32500
C547        C  0.14969502  0.57776537  0.32437780     0.01200
F548        F  0.17586813  0.56016828  0.23338839    -0.13100
F549        F  0.10227586  0.42331796  0.33473631    -0.13700
C550        C  0.16976650  0.58710186  0.36586261     0.16100
C551        C  0.15487852  0.62312081  0.39183250     0.25500
C552        C  0.12038466  0.65038191  0.37613648    -0.40800
C553        C  0.10426907  0.64434087  0.33258951     0.32500
C554        C  0.11875632  0.60829571  0.30682399     0.14200
F555        F  0.20068866  0.55889430  0.38289888    -0.13100
F556        F  0.07124029  0.67082928  0.31679751    -0.13700
F557        F  0.17098906  0.62874070  0.43384769    -0.15900
F558        F  0.09846321  0.60027371  0.26707110    -0.14500
F559        F  0.12635528  0.50092931  0.37496662    -0.14500
F560        F  0.14950313  0.48230165  0.19293203    -0.15900
C561        C  0.71923792  0.72894603  0.15252240     0.14100
C562        C  0.68750548  0.69759756  0.13689691     0.01100
C563        C  0.68591352  0.65459584  0.15645601     0.16100
C564        C  0.71757728  0.64206775  0.18789315     0.25500
C565        C  0.75234502  0.67162931  0.19956033    -0.40800
C566        C  0.75178536  0.71589763  0.18343199     0.32500
C567        C  0.66218297  0.70557842  0.09499416     0.01200
F568        F  0.65650192  0.62297742  0.14198943    -0.13100
F569        F  0.78460924  0.74529541  0.19481253    -0.13700
C570        C  0.68584307  0.71494583  0.05514392     0.16100
C571        C  0.66635344  0.70655159  0.01355213     0.25500
C572        C  0.62316809  0.68801331  0.01116158    -0.40800
C573        C  0.59746623  0.68461602  0.05065174     0.32500
C574        C  0.61674364  0.69367867  0.09228089     0.14200
F575        F  0.72977324  0.72630651  0.05630044    -0.13100
F576        F  0.55531042  0.66765719  0.04924231    -0.13700
F577        F  0.69208401  0.71034794  0.97616098    -0.15900
F578        F  0.59244474  0.68620427  0.13012599    -0.14500
F579        F  0.72040109  0.77125645  0.13568297    -0.14500
F580        F  0.71621554  0.59966024  0.20463073    -0.15900
C581        C  0.41320562  0.75786356  0.45802185     0.14100
C582        C  0.44379789  0.77213910  0.42486831     0.01100
C583        C  0.43477182  0.81135837  0.40031153     0.16100
C584        C  0.39871748  0.83848282  0.41225118     0.25500
C585        C  0.37100589  0.82622486  0.44830788    -0.40800
C586        C  0.37693881  0.78461941  0.46938057     0.32500
C587        C  0.48852887  0.75128670  0.42282089     0.01200
F588        F  0.46303448  0.82521979  0.36731341    -0.13100
F589        F  0.35020594  0.77220792  0.50421926    -0.13700
C590        C  0.49302855  0.70445627  0.41957413     0.16100
C591        C  0.53345692  0.68418003  0.43065232     0.25500
C592        C  0.56999234  0.71055284  0.44415832    -0.40800
C593        C  0.56693555  0.75740956  0.44272639     0.32500
C594        C  0.52643722  0.77767494  0.43259720     0.14200
F595        F  0.45731449  0.67823338  0.40922901    -0.13100
F596        F  0.60158584  0.78337501  0.45669608    -0.13700
F597        F  0.53586282  0.63875411  0.43201037    -0.15900
F598        F  0.52307571  0.82277578  0.43760578    -0.14500
F599        F  0.42109059  0.72067616  0.48298012    -0.14500
F600        F  0.39350435  0.87869499  0.39164484    -0.15900
C601        C  0.97596897  0.70551978  0.75955186     0.14100
C602        C  0.97843308  0.75266800  0.75990759     0.01100
C603        C  0.93905452  0.77742302  0.75446207     0.16100
C604        C  0.89922999  0.75566141  0.74326328     0.25500
C605        C  0.89839193  0.70904570  0.73704129    -0.40800
C606        C  0.93627394  0.68384661  0.74751583     0.32500
C607        C  0.02198762  0.77577442  0.75361376     0.01200
F608        F  0.94030961  0.82295442  0.75403584    -0.13100
F609        F  0.93592126  0.63867492  0.74187776    -0.13700
C610        C  0.04769054  0.76507625  0.71560061     0.16100
C611        C  0.08191209  0.79357519  0.70136105     0.25500
C612        C  0.09083517  0.83356578  0.72437245    -0.40800
C613        C  0.06808251  0.84255288  0.76455717     0.32500
C614        C  0.03383518  0.81359441  0.77926211     0.14200
F615        F  0.03670169  0.72955181  0.68936820    -0.13100
F616        F  0.07651390  0.88096638  0.78742312    -0.13700
F617        F  0.10395773  0.78412016  0.66269782    -0.15900
F618        F  0.01027405  0.82397460  0.81672661    -0.14500
F619        F  0.01320993  0.68080353  0.76604207    -0.14500
F620        F  0.86309035  0.78062549  0.73272132    -0.15900
C621        C  0.67136507  0.99362842  0.82806135     0.14100
C622        C  0.64149484  0.00650980  0.86213880     0.01100
C623        C  0.59937417  0.98548462  0.86498871     0.16100
C624        C  0.58633630  0.95440614  0.83290051     0.25500
C625        C  0.61473855  0.94423736  0.79683434    -0.40800
C626        C  0.65801314  0.96255370  0.79550954     0.32500
C627        C  0.64957275  0.04711940  0.88940791     0.01200
F628        F  0.56917015  0.99786512  0.89661035    -0.13100
F629        F  0.68611310  0.95260513  0.76122411    -0.13700
C630        C  0.65341746  0.08877923  0.86753619     0.16100
C631        C  0.64278477  0.12814820  0.89021879     0.25500
C632        C  0.62777568  0.12620797  0.93488945    -0.40800
C633        C  0.63034035  0.08551157  0.95843958     0.32500
C634        C  0.64157061  0.04613380  0.93586330     0.14200
F635        F  0.66107764  0.09092214  0.82272036    -0.13100
F636        F  0.61734168  0.08321536  0.00200650    -0.13700
F637        F  0.64086794  0.16704895  0.86659940    -0.15900
F638        F  0.63942226  0.00639764  0.95808519    -0.14500
F639        F  0.71243481  0.01293756  0.82500850    -0.14500
F640        F  0.54487224  0.93580014  0.83580077    -0.15900
loop_ 
_geom_bond_atom_site_label_1 
_geom_bond_atom_site_label_2 
_geom_bond_distance 
_geom_bond_site_symmetry_2 
_ccdc_geom_bond_type 
C1            C2   1.401       .  A
C1            C6   1.399       .  A
C1          C625   1.474       .  S
C2            C3   1.400       .  A
C2            H7   1.085       .  S
C3            C4   1.409       .  A
C3          C115   1.485       .  S
C4            C5   1.412       .  A
C4            H8   1.084       .  S
C5            C6   1.401       .  A
C5          C398   1.468       .  S
C6            H9   1.084       .  S
C10          C11   1.407       .  A
C10          C15   1.411       .  A
C10         C632   1.476       .  S
C11          C12   1.400       .  A
C11          H16   1.084       .  S
C12          C13   1.403       .  A
C12          C92   1.471       .  S
C13          C14   1.404       .  A
C13          H17   1.085       .  S
C14          C15   1.398       .  A
C14         C254   1.476       .  S
C15          H18   1.084       .  S
C19          C20   1.406       .  A
C19          C24   1.406       .  A
C19         C605   1.472       .  S
C20          C21   1.397       .  A
C20          H25   1.084       .  S
C21          C22   1.406       .  A
C21         C158   1.479       .  S
C22          C23   1.407       .  A
C22          H26   1.084       .  S
C23          C24   1.402       .  A
C23         C400   1.473       .  S
C24          H27   1.084       .  S
C28          C29   1.403       .  A
C28          C33   1.404       .  A
C28         C612   1.473       .  S
C29          C30   1.406       .  A
C29          H34   1.084       .  S
C30          C31   1.418       .  A
C30         C117   1.490       .  S
C31          C32   1.411       .  A
C31          H35   1.083       .  S
C32          C33   1.398       .  A
C32         C340   1.491       .  S
C33          H36   1.086       .  S
C37          C38   1.410       .  A
C37          C42   1.406       .  A
C37         C592   1.471       .  S
C38          C39   1.406       .  A
C38          H43   1.084       .  S
C39          C40   1.408       .  A
C39         C157   1.482       .  S
C40          C41   1.401       .  A
C40          H44   1.085       .  S
C41          C42   1.393       .  A
C41         C399   1.473       .  S
C42          H45   1.085       .  S
C46          C47   1.401       .  A
C46          C51   1.403       .  A
C46         C585   1.472       .  S
C47          C48   1.397       .  A
C47          H52   1.086       .  S
C48          C49   1.409       .  A
C48         C118   1.487       .  S
C49          C50   1.416       .  A
C49          H53   1.083       .  S
C50          C51   1.408       .  A
C50         C336   1.488       .  S
C51          H54   1.084       .  S
C55          C56   1.408       .  A
C55          C60   1.415       .  A
C55         C572   1.483   1_556  S
C56          C57   1.394       .  A
C56          H61   1.084   1_556  S
C57          C58   1.400       .  A
C57          C94   1.472       .  S
C58          C59   1.403       .  A
C58          H62   1.086       .  S
C59          C60   1.408       .  A
C59         C397   1.479       .  S
C60          H63   1.084       .  S
C64          C65   1.403       .  A
C64          C69   1.404       .  A
C64         C565   1.480       .  S
C65          C66   1.399       .  A
C65          H70   1.084       .  S
C66          C67   1.408       .  A
C66         C195   1.489       .  S
C67          C68   1.417       .  A
C67          H71   1.083       .  S
C68          C69   1.408       .  A
C68         C156   1.488       .  S
C69          H72   1.083       .  S
Zn73         O77   1.946       .  S
Zn73         O78   2.004       .  S
Zn73         O82   2.027       .  S
Zn73         O89   1.988   1_556  S
Zn74         O77   1.948       .  S
Zn74         O79   2.008       .  S
Zn74         O81   2.047       .  S
Zn74         O85   1.980       .  S
Zn75         O77   1.951       .  S
Zn75         O80   2.009       .  S
Zn75         O83   2.044       .  S
Zn75         O86   1.997       .  S
Zn76         O77   1.989       .  S
Zn76         O84   2.070       .  S
Zn76         O87   2.053       .  S
Zn76         O88   2.060   1_556  S
O78          C90   1.271       .  A
O79          C91   1.274       .  A
O80          C92   1.273       .  A
O81          C90   1.275       .  A
O82          C92   1.274       .  A
O83          C91   1.276       .  A
O84          C93   1.279       .  A
O85          C94   1.270       .  A
O86          C93   1.271       .  A
O87          C94   1.278       .  A
O88          C95   1.278       .  A
O89          C95   1.270       .  A
C90         C162   1.472       .  S
C91         C371   1.474       .  S
C93         C346   1.479       .  S
C95         C212   1.472       .  S
Zn96        O100   1.959       .  S
Zn96        O101   1.998       .  S
Zn96        O105   2.041       .  S
Zn96        O112   2.029       .  S
Zn97        O100   1.981       .  S
Zn97        O102   2.072       .  S
Zn97        O104   2.067       .  S
Zn97        O108   2.066       .  S
Zn98        O100   1.940       .  S
Zn98        O103   2.011       .  S
Zn98        O106   1.997       .  S
Zn98        O109   2.007   1_565  S
Zn99        O100   1.961       .  S
Zn99        O107   2.045   1_565  S
Zn99        O110   2.008       .  S
Zn99        O111   2.029       .  S
O101        C113   1.272       .  A
O102        C114   1.280       .  A
O103        C115   1.276       .  A
O104        C113   1.280       .  A
O105        C115   1.275       .  A
O106        C114   1.271       .  A
O107        C116   1.278       .  A
O108        C117   1.282       .  A
O109        C116   1.272       .  A
O110        C117   1.273       .  A
O111        C118   1.275       .  A
O112        C118   1.278       .  A
C113        C353   1.488       .  S
C114        C223   1.486       .  S
C116        C273   1.480       .  S
C119        C120   1.401       .  A
C119        C124   1.404       .  A
C119        C552   1.471       .  S
C120        C121   1.405       .  A
C120        H125   1.084       .  S
C121        C122   1.412       .  A
C121        C341   1.483       .  S
C122        C123   1.408       .  A
C122        H126   1.084       .  S
C123        C124   1.400       .  A
C123        C154   1.486   1_455  S
C124        H127   1.084       .  S
C128        C129   1.405       .  A
C128        C133   1.404       .  A
C128        C545   1.470       .  S
C129        C130   1.406       .  A
C129        H134   1.083       .  S
C130        C131   1.413       .  A
C130        C297   1.486       .  S
C131        C132   1.407       .  A
C131        H135   1.084       .  S
C132        C133   1.397       .  A
C132        C197   1.484   1_455  S
C133        H136   1.084       .  S
Zn137       O141   1.961       .  S
Zn137       O142   2.034       .  S
Zn137       O146   2.000       .  S
Zn137       O153   2.033       .  S
Zn138       O141   1.952       .  S
Zn138       O143   1.999       .  S
Zn138       O145   2.024       .  S
Zn138       O149   2.041       .  S
Zn139       O141   1.983       .  S
Zn139       O144   2.056       .  S
Zn139       O147   2.059       .  S
Zn139       O150   2.071       .  S
Zn140       O141   1.936       .  S
Zn140       O148   1.984       .  S
Zn140       O151   2.008       .  S
Zn140       O152   2.001       .  S
O142        C154   1.277       .  A
O143        C155   1.273       .  A
O144        C156   1.279       .  A
O145        C154   1.275       .  A
O146        C156   1.272       .  A
O147        C155   1.281       .  A
O148        C157   1.270       .  A
O149        C158   1.277       .  A
O150        C157   1.278       .  A
O151        C158   1.272       .  A
O152        C159   1.274       .  A
O153        C159   1.275       .  A
C155        C303   1.485       .  S
C159        C364   1.484       .  S
C160        C161   1.401       .  A
C160        C165   1.404   1_556  A
C160        C532   1.471       .  S
C161        C162   1.401       .  A
C161        H166   1.084       .  S
C162        C163   1.411   1_556  A
C163        C164   1.410       .  A
C163        H167   1.084       .  S
C164        C165   1.399       .  A
C164        C196   1.487       .  S
C165        H168   1.085       .  S
C169        C170   1.405   1_556  A
C169        C174   1.405       .  A
C169        C525   1.469       .  S
C170        C171   1.396       .  A
C170        H175   1.085       .  S
C171        C172   1.409       .  A
C171        C295   1.482       .  S
C172        C173   1.409   1_554  A
C172        H176   1.084       .  S
C173        C174   1.402       .  A
C173        C257   1.476       .  S
C174        H177   1.084       .  S
Zn178       O182   1.962       .  S
Zn178       O183   2.039       .  S
Zn178       O187   2.045       .  S
Zn178       O194   2.015       .  S
Zn179       O182   1.946       .  S
Zn179       O184   2.028       .  S
Zn179       O186   2.018       .  S
Zn179       O190   1.988       .  S
Zn180       O182   1.944       .  S
Zn180       O185   2.017       .  S
Zn180       O188   2.036       .  S
Zn180       O191   2.001       .  S
Zn181       O182   1.979       .  S
Zn181       O189   2.055       .  S
Zn181       O192   2.053       .  S
Zn181       O193   2.043       .  S
O183        C195   1.276       .  A
O184        C196   1.274       .  A
O185        C197   1.274       .  A
O186        C195   1.277       .  A
O187        C197   1.279       .  A
O188        C196   1.278       .  A
O189        C198   1.279       .  A
O190        C199   1.271       .  A
O191        C198   1.272       .  A
O192        C199   1.278       .  A
O193        C200   1.277       .  A
O194        C200   1.274       .  A
C198        C312   1.485       .  S
C199        C214   1.478       .  S
C200        C362   1.488       .  S
C201        C202   1.404       .  A
C201        C206   1.406       .  A
C201        C505   1.471       .  S
C202        C203   1.404       .  A
C202        H207   1.084       .  S
C203        C204   1.415       .  A
C203        C296   1.487       .  S
C204        C205   1.407       .  A
C204        H208   1.084       .  S
C205        C206   1.397       .  A
C205        C255   1.478       .  S
C206        H209   1.085       .  S
C210        C211   1.406       .  A
C210        C215   1.406       .  A
C210        C512   1.470       .  S
C211        C212   1.395       .  A
C211        H216   1.085       .  S
C212        C213   1.402       .  A
C213        C214   1.408       .  A
C213        H217   1.085       .  S
C214        C215   1.404       .  A
C215        H218   1.084       .  S
C219        C220   1.406       .  A
C219        C224   1.408       .  A
C219        C485   1.472       .  S
C220        C221   1.394       .  A
C220        H225   1.085   1_556  S
C221        C222   1.406       .  A
C221        C258   1.477   1_565  S
C222        C223   1.412       .  A
C222        H226   1.085   1_565  S
C223        C224   1.406       .  A
C224        H227   1.084       .  S
C228        C229   1.405       .  A
C228        C233   1.401       .  A
C228        C492   1.473       .  S
C229        C230   1.409       .  A
C229        H234   1.084       .  S
C230        C231   1.413       .  A
C230        C338   1.487       .  S
C231        C232   1.406       .  A
C231        H235   1.084   1_565  S
C232        C233   1.398       .  A
C232        C299   1.481   1_565  S
C233        H236   1.086       .  S
Zn237       O241   1.951       .  S
Zn237       O242   1.976       .  S
Zn237       O246   2.003       .  S
Zn237       O253   2.035       .  S
Zn238       O241   1.997       .  S
Zn238       O243   2.090   1_556  S
Zn238       O245   2.077       .  S
Zn238       O249   2.077       .  S
Zn239       O241   1.952       .  S
Zn239       O244   2.040       .  S
Zn239       O247   1.984   1_556  S
Zn239       O250   2.006       .  S
Zn240       O241   1.954       .  S
Zn240       O248   2.055       .  S
Zn240       O251   1.990       .  S
Zn240       O252   2.018       .  S
O242        C254   1.269       .  A
O243        C255   1.282       .  A
O244        C256   1.275       .  A
O245        C254   1.280       .  A
O246        C256   1.272       .  A
O247        C255   1.269       .  A
O248        C257   1.277       .  A
O249        C258   1.281       .  A
O250        C257   1.272       .  A
O251        C258   1.271       .  A
O252        C259   1.274       .  A
O253        C259   1.274       .  A
C256        C344   1.472       .  S
C259        C271   1.473       .  S
C260        C261   1.402       .  A
C260        C265   1.403       .  A
C260        C465   1.470       .  S
C261        C262   1.398       .  A
C261        H266   1.086       .  S
C262        C263   1.409       .  A
C262        C337   1.488       .  S
C263        C264   1.416       .  A
C263        H267   1.083       .  S
C264        C265   1.406       .  A
C264        C298   1.489       .  S
C265        H268   1.084       .  S
C269        C270   1.404       .  A
C269        C274   1.405       .  A
C269        C472   1.467       .  S
C270        C271   1.401       .  A
C270        H275   1.084       .  S
C271        C272   1.407       .  A
C272        C273   1.407       .  A
C272        H276   1.084       .  S
C273        C274   1.397       .  A
C274        H277   1.084       .  S
Zn278       O282   1.956       .  S
Zn278       O283   2.055       .  S
Zn278       O287   2.003       .  S
Zn278       O294   2.037       .  S
Zn279       O282   1.947       .  S
Zn279       O284   1.993       .  S
Zn279       O286   2.002       .  S
Zn279       O290   2.011       .  S
Zn280       O282   1.980       .  S
Zn280       O285   2.066       .  S
Zn280       O288   2.068       .  S
Zn280       O291   2.066       .  S
Zn281       O282   1.959       .  S
Zn281       O289   2.000       .  S
Zn281       O292   2.026       .  S
Zn281       O293   2.034   1_455  S
O283        C295   1.280       .  A
O284        C296   1.270       .  A
O285        C297   1.281       .  A
O286        C295   1.271       .  A
O287        C297   1.273       .  A
O288        C296   1.280       .  A
O289        C298   1.272       .  A
O290        C299   1.275       .  A
O291        C298   1.281       .  A
O292        C299   1.275       .  A
O293        C300   1.277       .  A
O294        C300   1.276   1_455  A
C300        C314   1.488       .  S
C301        C302   1.402       .  A
C301        C306   1.406       .  A
C301        C445   1.471       .  S
C302        C303   1.405       .  A
C302        H307   1.084       .  S
C303        C304   1.414       .  A
C304        C305   1.408       .  A
C304        H308   1.084       .  S
C305        C306   1.401       .  A
C305        C339   1.490       .  S
C306        H309   1.084       .  S
C310        C311   1.404       .  A
C310        C315   1.405       .  A
C310        C452   1.473       .  S
C311        C312   1.407       .  A
C311        H316   1.084       .  S
C312        C313   1.414       .  A
C313        C314   1.407       .  A
C313        H317   1.084       .  S
C314        C315   1.400       .  A
C315        H318   1.084       .  S
Zn319       O323   1.975       .  S
Zn319       O324   2.050       .  S
Zn319       O328   2.051       .  S
Zn319       O335   2.040       .  S
Zn320       O323   1.957       .  S
Zn320       O325   2.035   1_565  S
Zn320       O327   2.007       .  S
Zn320       O331   2.032       .  S
Zn321       O323   1.958       .  S
Zn321       O326   2.009       .  S
Zn321       O329   2.031   1_565  S
Zn321       O332   2.043   1_455  S
Zn322       O323   1.953       .  S
Zn322       O330   2.035       .  S
Zn322       O333   2.044       .  S
Zn322       O334   2.007       .  S
O324        C336   1.278       .  A
O325        C337   1.279       .  A
O326        C338   1.273       .  A
O327        C336   1.272       .  A
O328        C338   1.278       .  A
O329        C337   1.276       .  A
O330        C339   1.276   1_455  A
O331        C340   1.275       .  A
O332        C339   1.278       .  A
O333        C340   1.280       .  A
O334        C341   1.273       .  A
O335        C341   1.277       .  A
C342        C343   1.406       .  A
C342        C347   1.411       .  A
C342        C425   1.474       .  S
C343        C344   1.401       .  A
C343        H348   1.084       .  S
C344        C345   1.405       .  A
C345        C346   1.404       .  A
C345        H349   1.085       .  S
C346        C347   1.400       .  A
C347        H350   1.083       .  S
C351        C352   1.407       .  A
C351        C356   1.405       .  A
C351        C432   1.477       .  S
C352        C353   1.408       .  A
C352        H357   1.083       .  S
C353        C354   1.414       .  A
C354        C355   1.404       .  A
C354        H358   1.084       .  S
C355        C356   1.392       .  A
C355        C396   1.472       .  S
C356        H359   1.084       .  S
C360        C361   1.404       .  A
C360        C365   1.401       .  A
C360        C412   1.480       .  S
C361        C362   1.410       .  A
C361        H366   1.083       .  S
C362        C363   1.414       .  A
C363        C364   1.406       .  A
C363        H367   1.084       .  S
C364        C365   1.399       .  A
C365        H368   1.084       .  S
C369        C370   1.410       .  A
C369        C374   1.410       .  A
C369        C405   1.479       .  S
C370        C371   1.405       .  A
C370        H375   1.084       .  S
C371        C372   1.404       .  A
C372        C373   1.400       .  A
C372        H376   1.086       .  S
C373        C374   1.397       .  A
C373        C395   1.475       .  S
C374        H377   1.084       .  S
Zn378       O382   1.948       .  S
Zn378       O383   1.994       .  S
Zn378       O387   2.018       .  S
Zn378       O394   2.041       .  S
Zn379       O382   1.992       .  S
Zn379       O384   2.066       .  S
Zn379       O386   2.057       .  S
Zn379       O390   2.059       .  S
Zn380       O382   1.951       .  S
Zn380       O385   2.045       .  S
Zn380       O388   1.989       .  S
Zn380       O391   1.995       .  S
Zn381       O382   1.948       .  S
Zn381       O389   2.043       .  S
Zn381       O392   1.984       .  S
Zn381       O393   2.017       .  S
O383        C395   1.272       .  A
O384        C396   1.279       .  A
O385        C397   1.275       .  A
O386        C395   1.278       .  A
O387        C397   1.274       .  A
O388        C396   1.270       .  A
O389        C398   1.275       .  A
O390        C399   1.277       .  A
O391        C398   1.271       .  A
O392        C399   1.269       .  A
O393        C400   1.274       .  A
O394        C400   1.276       .  A
C401        C402   1.408       .  A
C401        C406   1.398       .  A
C401        F419   1.358       .  S
C402        C403   1.408       .  A
C402        C407   1.486       .  S
C403        C404   1.400       .  A
C403        F408   1.358       .  S
C404        C405   1.405       .  A
C404        F420   1.358       .  S
C405        C406   1.405       .  A
C406        F409   1.358       .  S
C407        C410   1.409       .  A
C407        C414   1.408       .  A
C410        C411   1.404       .  A
C410        F415   1.357       .  S
C411        C412   1.404       .  A
C411        F417   1.357       .  S
C412        C413   1.406       .  A
C413        C414   1.394       .  A
C413        F416   1.359       .  S
C414        F418   1.359       .  S
C421        C422   1.406       .  A
C421        C426   1.397       .  A
C421        F439   1.358       .  S
C422        C423   1.407       .  A
C422        C427   1.479       .  S
C423        C424   1.398       .  A
C423        F428   1.358       .  S
C424        C425   1.403       .  A
C424        F440   1.357       .  S
C425        C426   1.406       .  A
C426        F429   1.358       .  S
C427        C430   1.408       .  A
C427        C434   1.406       .  A
C430        C431   1.405       .  A
C430        F435   1.357       .  S
C431        C432   1.406       .  A
C431        F437   1.357       .  S
C432        C433   1.405       .  A
C433        C434   1.389       .  A
C433        F436   1.359       .  S
C434        F438   1.359       .  S
C441        C442   1.409   1_565  A
C441        C446   1.397       .  A
C441        F459   1.358       .  S
C442        C443   1.408       .  A
C442        C447   1.484       .  S
C443        C444   1.400   1_545  A
C443        F448   1.358       .  S
C444        C445   1.403       .  A
C444        F460   1.358       .  S
C445        C446   1.401       .  A
C446        F449   1.358       .  S
C447        C450   1.408       .  A
C447        C454   1.409       .  A
C450        C451   1.402       .  A
C450        F455   1.358       .  S
C451        C452   1.404       .  A
C451        F457   1.357       .  S
C452        C453   1.401       .  A
C453        C454   1.395       .  A
C453        F456   1.358       .  S
C454        F458   1.358       .  S
C461        C462   1.407       .  A
C461        C466   1.400       .  A
C461        F479   1.358       .  S
C462        C463   1.407       .  A
C462        C467   1.479       .  S
C463        C464   1.395       .  A
C463        F468   1.358       .  S
C464        C465   1.402       .  A
C464        F480   1.358       .  S
C465        C466   1.403       .  A
C466        F469   1.357       .  S
C467        C470   1.407       .  A
C467        C474   1.408       .  A
C470        C471   1.393       .  A
C470        F475   1.358       .  S
C471        C472   1.401       .  A
C471        F477   1.359       .  S
C472        C473   1.403       .  A
C473        C474   1.401       .  A
C473        F476   1.358       .  S
C474        F478   1.358       .  S
C481        C482   1.408       .  A
C481        C486   1.400       .  A
C481        F499   1.358       .  S
C482        C483   1.408       .  A
C482        C487   1.484       .  S
C483        C484   1.397   1_554  A
C483        F488   1.358       .  S
C484        C485   1.402       .  A
C484        F500   1.358       .  S
C485        C486   1.403   1_556  A
C486        F489   1.358       .  S
C487        C490   1.408       .  A
C487        C494   1.408       .  A
C490        C491   1.395       .  A
C490        F495   1.358       .  S
C491        C492   1.403       .  A
C491        F497   1.358       .  S
C492        C493   1.403       .  A
C493        C494   1.402       .  A
C493        F496   1.357       .  S
C494        F498   1.358       .  S
C501        C502   1.408       .  A
C501        C506   1.392       .  A
C501        F519   1.358       .  S
C502        C503   1.409       .  A
C502        C507   1.482       .  S
C503        C504   1.402       .  A
C503        F508   1.358       .  S
C504        C505   1.403       .  A
C504        F520   1.357       .  S
C505        C506   1.402       .  A
C506        F509   1.358       .  S
C507        C510   1.408       .  A
C507        C514   1.408       .  A
C510        C511   1.399       .  A
C510        F515   1.358       .  S
C511        C512   1.403       .  A
C511        F517   1.358       .  S
C512        C513   1.402       .  A
C513        C514   1.396       .  A
C513        F516   1.358       .  S
C514        F518   1.358       .  S
C521        C522   1.408       .  A
C521        C526   1.398   1_655  A
C521        F539   1.358       .  S
C522        C523   1.408   1_655  A
C522        C527   1.481       .  S
C523        C524   1.395       .  A
C523        F528   1.358       .  S
C524        C525   1.402       .  A
C524        F540   1.358       .  S
C525        C526   1.403       .  A
C526        F529   1.358       .  S
C527        C530   1.408       .  A
C527        C534   1.409       .  A
C530        C531   1.391       .  A
C530        F535   1.358       .  S
C531        C532   1.402       .  A
C531        F537   1.359   1_556  S
C532        C533   1.403       .  A
C533        C534   1.402       .  A
C533        F536   1.357       .  S
C534        F538   1.358       .  S
C541        C542   1.409       .  A
C541        C546   1.395       .  A
C541        F559   1.358       .  S
C542        C543   1.407       .  A
C542        C547   1.482       .  S
C543        C544   1.400       .  A
C543        F548   1.358       .  S
C544        C545   1.404       .  A
C544        F560   1.358       .  S
C545        C546   1.401       .  A
C546        F549   1.358       .  S
C547        C550   1.408       .  A
C547        C554   1.408       .  A
C550        C551   1.401       .  A
C550        F555   1.358       .  S
C551        C552   1.403       .  A
C551        F557   1.358       .  S
C552        C553   1.402       .  A
C553        C554   1.394       .  A
C553        F556   1.358       .  S
C554        F558   1.358       .  S
C561        C562   1.410       .  A
C561        C566   1.404       .  A
C561        F579   1.357       .  S
C562        C563   1.408       .  A
C562        C567   1.487       .  S
C563        C564   1.392       .  A
C563        F568   1.358       .  S
C564        C565   1.405       .  A
C564        F580   1.359       .  S
C565        C566   1.405       .  A
C566        F569   1.357       .  S
C567        C570   1.408       .  A
C567        C574   1.408       .  A
C570        C571   1.398       .  A
C570        F575   1.358       .  S
C571        C572   1.406       .  A
C571        F577   1.358   1_554  S
C572        C573   1.408       .  A
C573        C574   1.400       .  A
C573        F576   1.358       .  S
C574        F578   1.358       .  S
C581        C582   1.409       .  A
C581        C586   1.395       .  A
C581        F599   1.358       .  S
C582        C583   1.408       .  A
C582        C587   1.484       .  S
C583        C584   1.401       .  A
C583        F588   1.358       .  S
C584        C585   1.402       .  A
C584        F600   1.357       .  S
C585        C586   1.403       .  A
C586        F589   1.359       .  S
C587        C590   1.408       .  A
C587        C594   1.409       .  A
C590        C591   1.400       .  A
C590        F595   1.358       .  S
C591        C592   1.404       .  A
C591        F597   1.358       .  S
C592        C593   1.402       .  A
C593        C594   1.396       .  A
C593        F596   1.358       .  S
C594        F598   1.358       .  S
C601        C602   1.407       .  A
C601        C606   1.398       .  A
C601        F619   1.358   1_655  S
C602        C603   1.408       .  A
C602        C607   1.482   1_655  S
C603        C604   1.397       .  A
C603        F608   1.358       .  S
C604        C605   1.403       .  A
C604        F620   1.358       .  S
C605        C606   1.404       .  A
C606        F609   1.358       .  S
C607        C610   1.407       .  A
C607        C614   1.409       .  A
C610        C611   1.391       .  A
C610        F615   1.358       .  S
C611        C612   1.402       .  A
C611        F617   1.359       .  S
C612        C613   1.405       .  A
C613        C614   1.404       .  A
C613        F616   1.357       .  S
C614        F618   1.358       .  S
C621        C622   1.408   1_565  A
C621        C626   1.402       .  A
C621        F639   1.357   1_565  S
C622        C623   1.407   1_545  A
C622        C627   1.480       .  S
C623        C624   1.390       .  A
C623        F628   1.359       .  S
C624        C625   1.405       .  A
C624        F640   1.359       .  S
C625        C626   1.404       .  A
C626        F629   1.357       .  S
C627        C630   1.406       .  A
C627        C634   1.407       .  A
C630        C631   1.395       .  A
C630        F635   1.358       .  S
C631        C632   1.407       .  A
C631        F637   1.358       .  S
C632        C633   1.404       .  A
C633        C634   1.398       .  A
C633        F636   1.358   1_556  S
C634        F638   1.358       .  S
