geometry optimzed in LAMMPS
_audit_creation_date              2020-11-30 
_audit_creation_method            'lammps2cif' 
_symmetry_space_group_name_H-M    'P1' 
_symmetry_Int_Tables_number       1 
_symmetry_cell_setting            triclinic 
loop_ 
_symmetry_equiv_pos_as_xyz 
  x,y,z 
_cell_length_a                    33.08291349255414 
_cell_length_b                    44.06009058333352 
_cell_length_c                    26.698658240573405 
_cell_angle_alpha                 91.60349447200042 
_cell_angle_beta                  89.79190584047186 
_cell_angle_gamma                 89.88342488476208 
loop_ 
_atom_site_label 
_atom_site_type_symbol 
_atom_site_fract_x 
_atom_site_fract_y 
_atom_site_fract_z 
_atom_site_charge 
C1          C  0.40214856  0.27509328  0.74765974     0.02970
C2          C  0.38081533  0.27797950  0.79331406    -0.13180
C3          C  0.33826718  0.27611540  0.79493138     0.00470
C4          C  0.31714045  0.27487092  0.74904702    -0.11710
C5          C  0.33733510  0.27171530  0.70249265     0.02960
C6          C  0.38013698  0.27170579  0.70265604    -0.11130
H7          H  0.39761030  0.28115512  0.82778197     0.08550
H8          H  0.28458674  0.27603675  0.74966676     0.06080
H9          H  0.39666745  0.26913481  0.66774378     0.05930
C10         C  0.57915152  0.27894764  0.74773264     0.02970
C11         C  0.60127807  0.28126693  0.79266111    -0.13180
C12         C  0.64390042  0.27928209  0.79268005     0.00470
C13         C  0.66428624  0.27879945  0.74613882    -0.11710
C14         C  0.64299671  0.27669588  0.70011651     0.02960
C15         C  0.60036466  0.27526381  0.70215601    -0.11130
H16         H  0.58509677  0.28319945  0.82794383     0.08550
H17         H  0.69694237  0.27891196  0.74609904     0.06080
H18         H  0.58328255  0.27088292  0.66828895     0.05930
C19         C  0.07872270  0.25831859  0.24790566     0.02970
C20         C  0.09976862  0.26048507  0.20228641    -0.13180
C21         C  0.14235749  0.26105883  0.20068359     0.00470
C22         C  0.16360549  0.26146564  0.24666316    -0.11710
C23         C  0.14322394  0.26114105  0.29324542     0.02960
C24         C  0.10071107  0.25810467  0.29297407    -0.11130
H25         H  0.08263293  0.26270930  0.16811396     0.08550
H26         H  0.19621815  0.26297230  0.24627594     0.06080
H27         H  0.08442583  0.25607781  0.32796274     0.05930
C28         C  0.90239875  0.26240447  0.24716246     0.02970
C29         C  0.88056417  0.26306342  0.20181396    -0.13180
C30         C  0.83786515  0.26085029  0.20117550     0.00470
C31         C  0.81770276  0.25876812  0.24775119    -0.11710
C32         C  0.83866644  0.26099264  0.29366324     0.02960
C33         C  0.88110336  0.26161413  0.29282194    -0.11130
H34         H  0.89712150  0.26628308  0.16739375     0.08550
H35         H  0.78513417  0.25660667  0.24866193     0.06080
H36         H  0.89764173  0.26226132  0.32779982     0.05930
C37         C  0.27203371  0.13679887  0.00648776     0.02970
C38         C  0.31186405  0.14334066  0.02002165    -0.13180
C39         C  0.33598908  0.12122443  0.04003556     0.00470
C40         C  0.32179083  0.09149240  0.04255061    -0.11710
C41         C  0.28499847  0.08286865  0.02014628     0.02960
C42         C  0.25894054  0.10631428  0.00377597    -0.11130
H43         H  0.32256507  0.16662785  0.02061197     0.08550
H44         H  0.33944242  0.07519221  0.06279196     0.06080
H45         H  0.22890744  0.10125815  0.99010299     0.05930
C46         C  0.24055209  0.25986674  0.97653704     0.00400
C47         C  0.22727205  0.28203078  0.01078013     0.00400
C48         C  0.23699356  0.40928623  0.96346992     0.02970
C49         C  0.20779548  0.41548963  0.92709053    -0.13180
C50         C  0.19651992  0.44529290  0.91770489     0.00470
C51         C  0.21824575  0.46922571  0.93916298    -0.11710
C52         C  0.24734122  0.46382379  0.97583635     0.02960
C53         C  0.25671666  0.43370469  0.98839299    -0.11130
H54         H  0.19058673  0.39701972  0.91002263     0.08550
H55         H  0.20848601  0.49232009  0.93271935     0.06080
H56         H  0.27627042  0.42947380  0.01990780     0.05930
C57         C  0.73347973  0.26104893  0.98073896     0.00400
C58         C  0.74579604  0.28259602  0.01622133     0.00400
C59         C  0.75124725  0.13801472  0.04845502     0.02970
C60         C  0.73338750  0.13337009  0.09546055    -0.13180
C61         C  0.72109565  0.10447058  0.10858175     0.00470
C62         C  0.73685226  0.07919995  0.08238173    -0.11710
C63         C  0.75869835  0.08298547  0.03787912     0.02960
C64         C  0.76439433  0.11242206  0.01988745    -0.11130
H65         H  0.72262577  0.15259222  0.11796148     0.08550
H66         H  0.72734597  0.05665395  0.09263139     0.06080
H67         H  0.77581556  0.11490915  0.98223599     0.05930
C68         C  0.75789872  0.40859577  0.96663077     0.02970
C69         C  0.78816296  0.41106831  0.92993248    -0.13180
C70         C  0.79918844  0.43942589  0.91210240     0.00470
C71         C  0.77869847  0.46536195  0.92941699    -0.11710
C72         C  0.74951357  0.46353256  0.96753344     0.02960
C73         C  0.73852892  0.43497264  0.98560905    -0.11130
H74         H  0.80452362  0.39098632  0.91693941     0.08550
H75         H  0.78891756  0.48743673  0.91762183     0.06080
H76         H  0.71774049  0.43353851  0.01689526     0.05930
O77         O  0.46805455  0.09368084  0.17641397    -0.74590
O78         O  0.52458878  0.06144398  0.28635755    -0.74620
O79         O  0.44561010  0.07205735  0.26513273    -0.74670
O80         O  0.54565713  0.08256814  0.19823088    -0.74720
O81         O  0.55215401  0.12924418  0.23194806    -0.74660
O82         O  0.45095458  0.11886310  0.29896929    -0.74630
O83         O  0.52945222  0.10826724  0.32013088    -0.74610
O84         O  0.47347421  0.14057087  0.20969301    -0.74670
Ni85       Ni  0.49555698  0.07579566  0.23037659     1.25410
Ni86       Ni  0.50148336  0.12598332  0.26646539     1.25360
C87         C  0.46119470  0.12222550  0.17514369     0.87590
C88         C  0.53918919  0.08016346  0.31891783     0.87520
C89         C  0.43182115  0.09380363  0.29280678     0.87550
C90         C  0.56604488  0.10690376  0.20538083     0.87720
C91         C  0.24957780  0.12941937  0.45809553     0.02970
C92         C  0.27501835  0.12298647  0.41712222    -0.13180
C93         C  0.28509570  0.09310246  0.40380188     0.00470
C94         C  0.26651839  0.06919105  0.42790712    -0.11710
C95         C  0.23981517  0.07496136  0.46793304     0.02960
C96         C  0.23122768  0.10527071  0.48316918    -0.11130
H97         H  0.29046685  0.14139527  0.39890572     0.08550
H98         H  0.27618422  0.04611239  0.41907823     0.06080
H99         H  0.21322322  0.10988243  0.51649879     0.05930
C100        C  0.25630259  0.40460412  0.55245828     0.02970
C101        C  0.24508575  0.40883885  0.60304656    -0.13180
C102        C  0.23469599  0.43766141  0.62177820     0.00470
C103        C  0.24990074  0.46293370  0.59756917    -0.11710
C104        C  0.26442469  0.45983203  0.54839431     0.02960
C105        C  0.26566994  0.43068954  0.52488687    -0.11130
H106        H  0.23647263  0.38944863  0.62460245     0.08550
H107        H  0.24248277  0.48542051  0.61251218     0.06080
H108        H  0.27076438  0.42891018  0.48489029     0.05930
C109        C  0.24998443  0.25766985  0.51128945     0.00400
C110        C  0.23599659  0.27976849  0.47991097     0.00400
C111        C  0.72707555  0.25277635  0.50784416     0.00400
C112        C  0.74446707  0.27581671  0.48061376     0.00400
C113        C  0.73409982  0.12527354  0.44067773     0.02970
C114        C  0.70381209  0.11745377  0.40617685    -0.13180
C115        C  0.69516315  0.08717475  0.39447083     0.00470
C116        C  0.71955919  0.06438929  0.41264073    -0.11710
C117        C  0.74736345  0.07111170  0.45071191     0.02960
C118        C  0.75620443  0.10170566  0.46315701    -0.11130
H119        H  0.68333566  0.13473540  0.39303211     0.08550
H120        H  0.71073792  0.04093854  0.40558495     0.06080
H121        H  0.77728408  0.10689588  0.49307462     0.05930
C122        C  0.75868794  0.40283227  0.51673491     0.02970
C123        C  0.80048560  0.40407691  0.52474323    -0.13180
C124        C  0.81513181  0.42583533  0.55804545     0.00470
C125        C  0.79079822  0.45032619  0.57231332    -0.11710
C126        C  0.75583515  0.45636755  0.54484063     0.02960
C127        C  0.73655854  0.43043256  0.52207191    -0.11130
H128        H  0.81941966  0.38456111  0.51541454     0.08550
H129        H  0.80029893  0.46520643  0.60281230     0.06080
H130        H  0.70534979  0.43116303  0.51068789     0.05930
O131        O  0.04022900  0.42526707  0.80275833    -0.74590
O132        O  0.97521928  0.40271979  0.69099938    -0.74620
O133        O  0.05590319  0.41020043  0.70804024    -0.74670
O134        O  0.96016797  0.41796976  0.78690111    -0.74720
O135        O  0.95449827  0.46670628  0.76690862    -0.74660
O136        O  0.05048214  0.45894980  0.68828583    -0.74630
O137        O  0.97063803  0.45154619  0.67106637    -0.74610
O138        O  0.03560214  0.47412948  0.78321621    -0.74670
Ni139      Ni  0.00791798  0.41224655  0.74775038     1.25410
Ni140      Ni  0.00245117  0.46458077  0.72659425     1.25360
C141        C  0.05087151  0.45299387  0.80904491     0.87590
C142        C  0.96109247  0.42368058  0.66388226     0.87520
C143        C  0.07016848  0.43394172  0.68794904     0.87550
C144        C  0.94142553  0.44339040  0.78938501     0.87720
C145        C  0.40312233  0.76197996  0.24344440     0.02970
C146        C  0.38291960  0.75734838  0.28883987    -0.13180
C147        C  0.34054575  0.75739746  0.29129366     0.00470
C148        C  0.31885734  0.75697619  0.24610334    -0.11710
C149        C  0.33727117  0.76419992  0.20011554     0.02960
C150        C  0.38013063  0.76728791  0.20014499    -0.11130
H151        H  0.40034393  0.75489336  0.32277547     0.08550
H152        H  0.28743242  0.75135265  0.24759338     0.06080
H153        H  0.39648608  0.77336936  0.16690469     0.05930
C154        C  0.57916634  0.76679806  0.24214862     0.02970
C155        C  0.59995847  0.76747436  0.19610987    -0.13180
C156        C  0.64240227  0.76581973  0.19423494     0.00470
C157        C  0.66374632  0.76348763  0.23969213    -0.11710
C158        C  0.64402342  0.76579927  0.28666396     0.02960
C159        C  0.60131972  0.76642333  0.28717326    -0.11130
H160        H  0.58292023  0.76981561  0.16187336     0.08550
H161        H  0.69626270  0.76094014  0.23832943     0.06080
H162        H  0.58508674  0.76757185  0.32247101     0.05930
C163        C  0.08123775  0.77219316  0.74424348     0.02970
C164        C  0.10497711  0.77224423  0.70005990    -0.13180
C165        C  0.14784217  0.77554278  0.70153601     0.00470
C166        C  0.16558832  0.77897893  0.74938153    -0.11710
C167        C  0.14321412  0.77505208  0.79364679     0.02960
C168        C  0.10093951  0.77301929  0.79085554    -0.11130
H169        H  0.08938672  0.76927353  0.66478684     0.08550
H170        H  0.19689405  0.78500125  0.75331995     0.06080
H171        H  0.08336313  0.77194264  0.82506514     0.05930
C172        C  0.90399736  0.77685671  0.74122683     0.02970
C173        C  0.88253959  0.77696584  0.78693079    -0.13180
C174        C  0.84010104  0.77342434  0.78843522     0.00470
C175        C  0.81904615  0.77101528  0.74241096    -0.11710
C176        C  0.83956933  0.77171256  0.69585742     0.02960
C177        C  0.88206182  0.77506199  0.69608679    -0.11130
H178        H  0.89923758  0.77977779  0.82154240     0.08550
H179        H  0.78664139  0.76770506  0.74277118     0.06080
H180        H  0.89834177  0.77569955  0.66090372     0.05930
C181        C  0.25212506  0.90446850  0.55584428     0.02970
C182        C  0.24098871  0.93248295  0.53468050    -0.13180
C183        C  0.24164563  0.95991577  0.56447332     0.00470
C184        C  0.25744515  0.95839143  0.61345019    -0.11710
C185        C  0.27532352  0.93180850  0.62929087     0.02960
C186        C  0.26454263  0.90469758  0.60583533    -0.11130
H187        H  0.23431985  0.93297942  0.49512495     0.08550
H188        H  0.26135474  0.97844345  0.63711134     0.06080
H189        H  0.27293427  0.88375740  0.62335520     0.05930
C190        C  0.24876031  0.78093026  0.47690557     0.00400
C191        C  0.23591921  0.76004402  0.51101312     0.00400
C192        C  0.24846013  0.63276072  0.46329761     0.02970
C193        C  0.22637369  0.63105366  0.41871954    -0.13180
C194        C  0.21816652  0.60307169  0.39560473     0.00470
C195        C  0.23847401  0.57742148  0.41095395    -0.11710
C196        C  0.25754196  0.57746894  0.45787399     0.02960
C197        C  0.26305587  0.60565725  0.48412759    -0.11130
H198        H  0.21053669  0.65101542  0.40606295     0.08550
H199        H  0.23236012  0.55608275  0.39123031     0.06080
H200        H  0.27570466  0.60635657  0.52146854     0.05930
C201        C  0.24211405  0.63707012  0.04760422     0.02970
C202        C  0.25484648  0.60754281  0.03282668    -0.13180
C203        C  0.24864921  0.58295108  0.06532161     0.00470
C204        C  0.22782123  0.58887415  0.11081890    -0.11710
C205        C  0.21015248  0.61716072  0.12056849     0.02960
C206        C  0.22152666  0.64165653  0.09279116    -0.11130
H207        H  0.26664602  0.60365576  0.99536175     0.08550
H208        H  0.22018059  0.57066096  0.13551249     0.06080
H209        H  0.20822257  0.66370642  0.10178147     0.05930
C210        C  0.24681510  0.90587394  0.95008348     0.02970
C211        C  0.24312809  0.93146348  0.98353019    -0.13180
C212        C  0.24594494  0.96110579  0.96500223     0.00470
C213        C  0.25621236  0.96476741  0.91454628    -0.11710
C214        C  0.26836183  0.93961949  0.88587269     0.02960
C215        C  0.25340651  0.91143046  0.89918395    -0.11130
H216        H  0.24066498  0.92864591  0.02356446     0.08550
H217        H  0.26536950  0.98706658  0.90246627     0.06080
H218        H  0.25507868  0.89301534  0.87179709     0.05930
C219        C  0.24305391  0.78066165  0.01555024     0.00400
C220        C  0.22582859  0.75857759  0.98465515     0.00400
C221        C  0.73671278  0.78780069  0.01112172     0.00400
C222        C  0.75022952  0.76468473  0.97875831     0.00400
C223        C  0.74992390  0.91036732  0.94924439     0.02970
C224        C  0.76328245  0.93873638  0.96831204    -0.13180
C225        C  0.75936691  0.96501436  0.93906427     0.00470
C226        C  0.74106949  0.96156565  0.89155450    -0.11710
C227        C  0.71985539  0.93513737  0.87912255     0.02960
C228        C  0.72903189  0.90879636  0.90402508    -0.11130
H229        H  0.77351381  0.94031093  0.00666024     0.08550
H230        H  0.73666276  0.98080707  0.86789464     0.06080
H231        H  0.71378236  0.88782606  0.89347495     0.05930
C232        C  0.76152754  0.63891613  0.02458931     0.02970
C233        C  0.74082453  0.61097335  0.01836907    -0.13180
C234        C  0.75288301  0.58572049  0.04717841     0.00470
C235        C  0.78067902  0.59151087  0.08627251    -0.11710
C236        C  0.80529473  0.61697425  0.08532573     0.02960
C237        C  0.79770077  0.63923980  0.05141292    -0.11130
H238        H  0.71688079  0.60929309  0.99133725     0.08550
H239        H  0.78673565  0.57472830  0.11417854     0.06080
H240        H  0.81691480  0.65919500  0.05171996     0.05930
O241        O  0.03838811  0.64158928  0.23784230    -0.74590
O242        O  0.95847830  0.61863251  0.33239099    -0.74620
O243        O  0.04046562  0.62026739  0.32956346    -0.74670
O244        O  0.95603579  0.63998421  0.23965914    -0.74720
O245        O  0.95802194  0.59234878  0.20844533    -0.74660
O246        O  0.04212769  0.57276562  0.29779248    -0.74630
O247        O  0.95953652  0.57109385  0.30106419    -0.74610
O248        O  0.03926151  0.59403737  0.20666911    -0.74670
Ni249      Ni  0.99811691  0.63185611  0.28609497     1.25410
Ni250      Ni  0.99958646  0.58083275  0.25251533     1.25360
C251        C  0.05387881  0.62088928  0.20923987     0.87590
C252        C  0.94493418  0.59145132  0.33111262     0.87520
C253        C  0.05713128  0.59410788  0.32512209     0.87550
C254        C  0.94304935  0.61906943  0.20977257     0.87720
C255        C  0.74527969  0.62804765  0.46405598     0.02970
C256        C  0.72189228  0.60392130  0.48278296    -0.13180
C257        C  0.73399337  0.57353340  0.47309223     0.00470
C258        C  0.76700875  0.56745962  0.44100966    -0.11710
C259        C  0.79151280  0.59097120  0.42548403     0.02960
C260        C  0.78069006  0.62080810  0.43710197    -0.11130
H261        H  0.69586567  0.60841810  0.50639248     0.08550
H262        H  0.77744316  0.54426783  0.43507970     0.06080
H263        H  0.80141676  0.63856204  0.42649896     0.05930
C264        C  0.74736223  0.90283172  0.53967451     0.02970
C265        C  0.75542905  0.93207369  0.52253816    -0.13180
C266        C  0.73985904  0.95767844  0.54891944     0.00470
C267        C  0.71576671  0.95318666  0.59147649    -0.11710
C268        C  0.70370649  0.92395669  0.60502912     0.02960
C269        C  0.72343170  0.89916022  0.58250489    -0.11130
H270        H  0.77139675  0.93469361  0.48742749     0.08550
H271        H  0.70356795  0.97285460  0.61131804     0.06080
H272        H  0.71691542  0.87648927  0.59485009     0.05930
C273        C  0.74947515  0.75766194  0.50612590     0.00400
C274        C  0.73676458  0.78006990  0.47415504     0.00400
O275        O  0.45358573  0.96265769  0.81639853    -0.74590
O276        O  0.53510197  0.95234306  0.71751629    -0.73900
O277        O  0.45220158  0.95349949  0.71866893    -0.74670
O278        O  0.53647390  0.96002469  0.81580248    -0.74720
O279        O  0.53387646  0.90983844  0.82511209    -0.74660
O280        O  0.45108392  0.90330072  0.72766208    -0.74630
O281        O  0.53451608  0.90217908  0.72682752    -0.74610
O282        O  0.45090070  0.91246377  0.82576272    -0.74670
Ni283      Ni  0.49442200  0.95891953  0.76681724     1.25410
Ni284      Ni  0.49251551  0.90510505  0.77672536     1.25360
C285        C  0.43615540  0.93918360  0.83301534     0.87590
C286        C  0.55082804  0.92618155  0.70962264     0.87520
C287        C  0.43547192  0.92754719  0.71114260     0.87550
C288        C  0.55158443  0.93532778  0.83180112     0.87720
C289        C  0.65950718  0.94187120  0.67513948    -0.09320
C290        C  0.66674631  0.92019508  0.63665064     0.06880
C291        C  0.63542072  0.89898162  0.62478592    -0.03090
C292        C  0.59833612  0.90082273  0.64996816    -0.07540
C293        C  0.59043767  0.92432471  0.68465606     0.05990
C294        C  0.62160623  0.94496763  0.69744477    -0.02560
Br295      Br  0.61513441  0.97848780  0.74440211    -0.02260
H296        H  0.68298961  0.95765505  0.68651570     0.09900
H297        H  0.57471047  0.88466946  0.64054559     0.07920
Br298      Br  0.63745154  0.86836183  0.57240193    -0.02680
C299        C  0.78543851  0.85617912  0.51369220    -0.09320
C300        C  0.75246779  0.87564165  0.50728735     0.06880
C301        C  0.71839962  0.86486926  0.48141344    -0.03090
C302        C  0.71357024  0.83382841  0.47325861    -0.07540
C303        C  0.74495915  0.81328889  0.48372585     0.05990
C304        C  0.78290901  0.82553606  0.49820502    -0.02560
Br305      Br  0.83270647  0.80351004  0.49103143    -0.02260
H306        H  0.81286819  0.86475051  0.53091013     0.09900
H307        H  0.68496480  0.82581859  0.45849476     0.07920
Br308      Br  0.67695445  0.89189752  0.45905894    -0.02680
C309        C  0.74758746  0.68115325  0.43581174    -0.09320
C310        C  0.73695499  0.66110059  0.47397514     0.06880
C311        C  0.72758333  0.67372051  0.52195647    -0.03090
C312        C  0.72886045  0.70530257  0.53003239    -0.07540
C313        C  0.74325780  0.72470222  0.49289382     0.05990
C314        C  0.75502958  0.71173202  0.44631568    -0.02560
Br315      Br  0.79009528  0.73188983  0.40035862    -0.02260
H316        H  0.75535856  0.67231814  0.39873372     0.09900
H317        H  0.72117259  0.71464993  0.56682298     0.07920
Br318      Br  0.71872868  0.64987677  0.58004612    -0.02680
C319        C  0.87642147  0.57043788  0.33610159    -0.09320
C320        C  0.90900650  0.58465717  0.36076477     0.06880
C321        C  0.90363240  0.59705672  0.40942730    -0.03090
C322        C  0.86540157  0.59677254  0.43131112    -0.07540
C323        C  0.83207600  0.58498429  0.40485661     0.05990
C324        C  0.83788402  0.57085591  0.35756128    -0.02560
Br325      Br  0.79362044  0.55543163  0.31834260    -0.02260
H326        H  0.88014498  0.56132486  0.29822802     0.09900
H327        H  0.86116967  0.60727525  0.46816824     0.07920
Br328      Br  0.94686848  0.61580357  0.44667046    -0.02680
C329        C  0.87876375  0.62100717  0.09596906    -0.09320
C330        C  0.84029260  0.62018124  0.11807094     0.06880
C331        C  0.83595787  0.62325068  0.17035528    -0.03090
C332        C  0.87036323  0.62552447  0.20005825    -0.07540
C333        C  0.90877523  0.62466143  0.17794871     0.05990
C334        C  0.91308829  0.62303346  0.12568978    -0.02560
Br335      Br  0.96522081  0.62261065  0.09385242    -0.02260
H336        H  0.88206266  0.61923297  0.05557288     0.09900
H337        H  0.86722413  0.62637692  0.24052302     0.07920
Br338      Br  0.78404343  0.62434346  0.20263867    -0.02680
C339        C  0.65192381  0.95831885  0.88681781    -0.09320
C340        C  0.67796776  0.93780532  0.86093138     0.06880
C341        C  0.66140016  0.91613457  0.82737953    -0.03090
C342        C  0.61962715  0.91449733  0.82177193    -0.07540
C343        C  0.59377905  0.93494644  0.84771340     0.05990
C344        C  0.61018574  0.95730809  0.87983935    -0.02560
Br345      Br  0.57674128  0.98566967  0.91681123    -0.02260
H346        H  0.66384373  0.97438467  0.91436387     0.09900
H347        H  0.60738572  0.89803975  0.79500817     0.07920
Br348      Br  0.69452088  0.88893693  0.78746799    -0.02680
C349        C  0.75037045  0.69177215  0.05115469    -0.09320
C350        C  0.74528906  0.66944611  0.01293202     0.06880
C351        C  0.73591365  0.67892000  0.96439594    -0.03090
C352        C  0.73400289  0.71020208  0.95511159    -0.07540
C353        C  0.74582610  0.73201648  0.99206763     0.05990
C354        C  0.75678727  0.72176945  0.03956821    -0.02560
Br355      Br  0.79061534  0.74441783  0.08542850    -0.02260
H356        H  0.75756283  0.68506080  0.08889460     0.09900
H357        H  0.72650925  0.71739604  0.91778753     0.07920
Br358      Br  0.72998724  0.65072589  0.90901224    -0.02680
C359        C  0.70898395  0.83961859  0.00275676    -0.09320
C360        C  0.74303930  0.82053589  0.00022924     0.06880
C361        C  0.78147386  0.83372684  0.99219188    -0.03090
C362        C  0.78419074  0.86442531  0.98006914    -0.07540
C363        C  0.74946045  0.88261417  0.97870144     0.05990
C364        C  0.71204368  0.87037928  0.99310875    -0.02560
Br365      Br  0.66352783  0.89442153  0.99613327    -0.02260
H366        H  0.67950000  0.83037122  0.01118031     0.09900
H367        H  0.81321901  0.87383474  0.96999333     0.07920
Br368      Br  0.83122296  0.81228569  0.00200329    -0.02680
C369        C  0.33991604  0.92834496  0.90523776    -0.09320
C370        C  0.31148747  0.94021669  0.87157987     0.06880
C371        C  0.32526832  0.95509073  0.82914736    -0.03090
C372        C  0.36674520  0.95650274  0.81965655    -0.07540
C373        C  0.39473605  0.94257594  0.85142906     0.05990
C374        C  0.38115545  0.92859548  0.89468522    -0.02560
Br375      Br  0.41770141  0.91011101  0.94042530    -0.02260
H376        H  0.32992263  0.91847320  0.93983959     0.09900
H377        H  0.37702975  0.96702734  0.78568757     0.07920
Br378      Br  0.28859374  0.97276020  0.78276889    -0.02680
C379        C  0.22522617  0.86659038  0.01068538    -0.09320
C380        C  0.24767408  0.87388647  0.96793786     0.06880
C381        C  0.27044790  0.85015685  0.94367983    -0.03090
C382        C  0.26578162  0.82027161  0.95822205    -0.07540
C383        C  0.24357701  0.81312988  0.00080963     0.05990
C384        C  0.22474027  0.83709167  0.02875467    -0.02560
Br385      Br  0.19566877  0.83204940  0.09020771    -0.02260
H386        H  0.20780062  0.88389201  0.03060630     0.09900
H387        H  0.28148584  0.80241008  0.93732281     0.07920
Br388      Br  0.31335601  0.85541122  0.89581640    -0.02680
C389        C  0.16370400  0.63678468  0.18686187    -0.09320
C390        C  0.16989282  0.61900476  0.14332858     0.06880
C391        C  0.13633307  0.60705234  0.11693582    -0.03090
C392        C  0.09781050  0.61041446  0.13705762    -0.07540
C393        C  0.09175945  0.62620538  0.18261589     0.05990
C394        C  0.12487284  0.64057041  0.20675056    -0.02560
Br395      Br  0.12004013  0.66355783  0.26867385    -0.02260
H396        H  0.18919515  0.64740968  0.20563770     0.09900
H397        H  0.07252815  0.59973535  0.11785276     0.07920
Br398      Br  0.14066055  0.58696951  0.05226462    -0.02680
C399        C  0.20328175  0.67454418  0.00177905    -0.09320
C400        C  0.24151604  0.66315463  0.01428297     0.06880
C401        C  0.27520436  0.68220122  0.01096323    -0.03090
C402        C  0.26981861  0.71267791  0.99914551    -0.07540
C403        C  0.23092065  0.72533896  0.99439577     0.05990
C404        C  0.19751916  0.70539034  0.99357617    -0.02560
Br405      Br  0.14267770  0.71878898  0.98661664    -0.02260
H406        H  0.17698176  0.66005990  0.00475410     0.09900
H407        H  0.29618262  0.72649109  0.99484477     0.07920
Br408      Br  0.32831774  0.66831659  0.02749431    -0.02680
C409        C  0.14541976  0.59994771  0.41094967    -0.09320
C410        C  0.17731540  0.59833277  0.37609057     0.06880
C411        C  0.16943333  0.59052486  0.32588219    -0.03090
C412        C  0.12942909  0.58630132  0.31076266    -0.07540
C413        C  0.09745537  0.59043036  0.34521272     0.05990
C414        C  0.10557035  0.59690237  0.39569295    -0.02560
Br415      Br  0.06335404  0.60215134  0.44460089    -0.02260
H416        H  0.15165636  0.60386477  0.45027356     0.09900
H417        H  0.12311587  0.58180475  0.27143004     0.07920
Br418      Br  0.21187917  0.58697047  0.27704147    -0.02680
C419        C  0.20893902  0.70754187  0.51177915    -0.09320
C420        C  0.24248803  0.72644546  0.50494169     0.06880
C421        C  0.28079158  0.71260032  0.49744494    -0.03090
C422        C  0.28344147  0.68108484  0.48785158    -0.07540
C423        C  0.24885973  0.66276030  0.48985966     0.05990
C424        C  0.21205896  0.67613926  0.50558663    -0.02560
Br425      Br  0.16450939  0.65268263  0.51752903    -0.02260
H426        H  0.17970377  0.71727563  0.52100726     0.09900
H427        H  0.31227174  0.67102697  0.47750950     0.07920
Br428      Br  0.33036572  0.73470404  0.50452104    -0.02680
C429        C  0.32382917  0.91377472  0.69253658    -0.09320
C430        C  0.31574856  0.93277899  0.65261359     0.06880
C431        C  0.34853881  0.94744920  0.62888122    -0.03090
C432        C  0.38741003  0.94505572  0.64810445    -0.07540
C433        C  0.39532358  0.92632495  0.68812421     0.05990
C434        C  0.36326270  0.90986412  0.70969903    -0.02560
Br435      Br  0.37050497  0.88216090  0.76327113    -0.02260
H436        H  0.29944710  0.90120958  0.70943031     0.09900
H437        H  0.41194346  0.95721780  0.63070768     0.07920
Br438      Br  0.34455392  0.96770735  0.56632760    -0.02680
C439        C  0.22504525  0.86597134  0.49226799    -0.09320
C440        C  0.25480499  0.87484316  0.52719832     0.06880
C441        C  0.28535920  0.85346555  0.53857130    -0.03090
C442        C  0.28026615  0.82299240  0.52546440    -0.07540
C443        C  0.24943727  0.81368568  0.49292676     0.05990
C444        C  0.22391261  0.83594904  0.47274054    -0.02560
Br445      Br  0.18912358  0.82698751  0.41709197    -0.02260
H446        H  0.20278214  0.88221926  0.48018107     0.09900
H447        H  0.30243758  0.80663168  0.53758257     0.07920
Br448      Br  0.33709782  0.86455188  0.56654515    -0.02680
C449        C  0.78048233  0.78484214  0.64012921    -0.09320
C450        C  0.81667242  0.76846721  0.64712277     0.06880
C451        C  0.82951055  0.74851573  0.60771953    -0.03090
C452        C  0.80796353  0.74665218  0.56255920    -0.07540
C453        C  0.77233161  0.76350068  0.55484473     0.05990
C454        C  0.75796216  0.78195983  0.59537305    -0.02560
Br455      Br  0.70580686  0.80085872  0.59446065    -0.02260
H456        H  0.76908405  0.79956023  0.67014352     0.09900
H457        H  0.81886074  0.73125099  0.53316134     0.07920
Br458      Br  0.87359057  0.72046350  0.61444766    -0.02680
C459        C  0.78061563  0.78746856  0.84462735    -0.09320
C460        C  0.81775011  0.77199709  0.83784297     0.06880
C461        C  0.83182435  0.75451051  0.87800724    -0.03090
C462        C  0.81030794  0.75410250  0.92337875    -0.07540
C463        C  0.77342056  0.76972426  0.93046197     0.05990
C464        C  0.75807006  0.78577567  0.88946402    -0.02560
Br465      Br  0.70454950  0.80248394  0.88957491    -0.02260
H466        H  0.76835130  0.80038560  0.81426038     0.09900
H467        H  0.82199982  0.74048090  0.95327605     0.07920
Br468      Br  0.87740279  0.72748725  0.87228845    -0.02680
C469        C  0.15296798  0.78943373  0.88484025    -0.09320
C470        C  0.16461479  0.77193216  0.84246215     0.06880
C471        C  0.19500182  0.74983096  0.84818249    -0.03090
C472        C  0.21653050  0.74832435  0.89297515    -0.07540
C473        C  0.20524372  0.76571476  0.93575660     0.05990
C474        C  0.17141314  0.78537759  0.93159750    -0.02560
Br475      Br  0.14316475  0.80225511  0.98844651    -0.02260
H476        H  0.12779444  0.80504742  0.88224487     0.09900
H477        H  0.24035195  0.73154992  0.89547151     0.07920
Br478      Br  0.20228139  0.71678043  0.80082979    -0.02680
C479        C  0.23480996  0.76409427  0.60390842    -0.09320
C480        C  0.21503428  0.76965240  0.55906558     0.06880
C481        C  0.17428706  0.77886895  0.56135540    -0.03090
C482        C  0.15466367  0.78295500  0.60784951    -0.07540
C483        C  0.17323862  0.77524499  0.65350959     0.05990
C484        C  0.21472139  0.76581075  0.65023406    -0.02560
Br485      Br  0.24747008  0.75095786  0.70332657    -0.02260
H486        H  0.26584723  0.75619281  0.60236466     0.09900
H487        H  0.12389855  0.79112725  0.60733591     0.07920
Br488      Br  0.14191572  0.78166989  0.50244301    -0.02680
C489        C  0.01578474  0.79496160  0.71546176    -0.09320
C490        C  0.03581474  0.77217746  0.74185140     0.06880
C491        C  0.01194411  0.75088362  0.76731505    -0.03090
C492        C  0.96950486  0.75308376  0.76692125    -0.07540
C493        C  0.94946081  0.77606242  0.74102839     0.05990
C494        C  0.97327801  0.79709974  0.71496917    -0.02560
Br495      Br  0.94954750  0.83047753  0.68094098    -0.02260
H496        H  0.03337854  0.81175518  0.69613266     0.09900
H497        H  0.95193688  0.73633202  0.78638226     0.07920
Br498      Br  0.03545047  0.71716240  0.80080883    -0.02680
C499        C  0.65464230  0.75445116  0.37859726    -0.09320
C500        C  0.66809865  0.76851302  0.33463096     0.06880
C501        C  0.70358919  0.78640563  0.33827847    -0.03090
C502        C  0.72610205  0.78750203  0.38252433    -0.07540
C503        C  0.71305483  0.77336312  0.42632977     0.05990
C504        C  0.67562516  0.75784618  0.42438575    -0.02560
Br505      Br  0.64862763  0.74471740  0.48364325    -0.02260
H506        H  0.62681358  0.74159780  0.37800617     0.09900
H507        H  0.75337877  0.80106346  0.38357037     0.07920
Br508      Br  0.72042816  0.81410813  0.28799186    -0.02680
C509        C  0.67880019  0.76163517  0.05671562    -0.09320
C510        C  0.71177479  0.78195265  0.05805671     0.06880
C511        C  0.72010830  0.79722503  0.10445387    -0.03090
C512        C  0.69677712  0.79167809  0.14693925    -0.07540
C513        C  0.66519054  0.77051466  0.14625499     0.05990
C514        C  0.65641835  0.75523700  0.10023984    -0.02560
Br515      Br  0.61655908  0.72376373  0.09505023    -0.02260
H516        H  0.67083846  0.75012610  0.02179002     0.09900
H517        H  0.70372803  0.80411599  0.18128757     0.07920
Br518      Br  0.76481379  0.82440078  0.11521582    -0.02680
C519        C  0.24767812  0.77143493  0.10756059    -0.09320
C520        C  0.26730212  0.77321884  0.06129741     0.06880
C521        C  0.31000236  0.77210165  0.06089934    -0.03090
C522        C  0.33131341  0.76691945  0.10519304    -0.07540
C523        C  0.31218345  0.76785230  0.15270397     0.05990
C524        C  0.26938477  0.77260765  0.15270488    -0.02560
Br525      Br  0.23841019  0.78880681  0.20864314    -0.02260
H526        H  0.21504792  0.77257184  0.10888763     0.09900
H527        H  0.36337503  0.76323438  0.10143351     0.07920
Br528      Br  0.34181688  0.77786594  0.00158346    -0.02680
C529        C  0.28203773  0.74565989  0.34905521    -0.09320
C530        C  0.31870035  0.76107739  0.34050961     0.06880
C531        C  0.33120678  0.78298296  0.37694984    -0.03090
C532        C  0.30871038  0.78781630  0.42068609    -0.07540
C533        C  0.27197991  0.77270907  0.42948060     0.05990
C534        C  0.25815795  0.75201432  0.39190831    -0.02560
Br535      Br  0.20495616  0.73487123  0.39309617    -0.02260
H536        H  0.27090310  0.72938267  0.32133942     0.09900
H537        H  0.32020183  0.80432968  0.44756813     0.07920
Br538      Br  0.37573860  0.81043092  0.36804876    -0.02680
C539        C  0.46829977  0.78911865  0.22656681    -0.09320
C540        C  0.44830386  0.76288458  0.24230862     0.06880
C541        C  0.47186200  0.73815405  0.25816513    -0.03090
C542        C  0.51420270  0.74012487  0.25871357    -0.07540
C543        C  0.53411954  0.76631972  0.24303700     0.05990
C544        C  0.51072823  0.79097971  0.22685966    -0.02560
Br545      Br  0.53538691  0.82812926  0.20692337    -0.02260
H546        H  0.45081559  0.80844231  0.21476314     0.09900
H547        H  0.53175916  0.72082543  0.27050294     0.07920
Br548      Br  0.44790084  0.70040908  0.27660871    -0.02680
C549        C  0.70612234  0.49603058  0.51434196    -0.09320
C550        C  0.74303414  0.48905983  0.53827229     0.06880
C551        C  0.76963929  0.51405906  0.54933179    -0.03090
C552        C  0.75725067  0.54365881  0.54109186    -0.07540
C553        C  0.72535894  0.54918317  0.50862116     0.05990
C554        C  0.69849005  0.52542381  0.49700487    -0.02560
Br555      Br  0.65349275  0.53187347  0.45372637    -0.02260
H556        H  0.68476203  0.47838842  0.50456219     0.09900
H557        H  0.77853250  0.56190034  0.54888161     0.07920
Br558      Br  0.82768222  0.51218026  0.55835438    -0.02680
C559        C  0.88897656  0.43193659  0.55829988    -0.09320
C560        C  0.85411065  0.42111259  0.58155504     0.06880
C561        C  0.85672344  0.40612495  0.62715314    -0.03090
C562        C  0.89407607  0.40329235  0.65007379    -0.07540
C563        C  0.92839404  0.41670090  0.62936534     0.05990
C564        C  0.92616827  0.43019297  0.58236740    -0.02560
Br565      Br  0.97261840  0.44752029  0.55106571    -0.02260
H566        H  0.88689645  0.44295811  0.52259984     0.09900
H567        H  0.89542630  0.39357156  0.68691882     0.07920
Br568      Br  0.80986875  0.39245975  0.66256219    -0.02680
C569        C  0.71592771  0.03828726  0.51114907    -0.09320
C570        C  0.75183867  0.04688418  0.48744756     0.06880
C571        C  0.78511685  0.02704962  0.48746827    -0.03090
C572        C  0.78153035  0.99859117  0.50969328    -0.07540
C573        C  0.74419715  0.98888208  0.52930481     0.05990
C574        C  0.71087231  0.00912172  0.52853942    -0.02560
Br575      Br  0.65558566  0.99728694  0.53999456    -0.02260
H576        H  0.68962871  0.05295813  0.50940428     0.09900
H577        H  0.80741773  0.98352864  0.50963584     0.07920
Br578      Br  0.83452502  0.03717549  0.45440917    -0.02680
C579        C  0.73159110  0.18060459  0.42336112    -0.09320
C580        C  0.73553555  0.15757966  0.45864428     0.06880
C581        C  0.73051314  0.16571595  0.50966339    -0.03090
C582        C  0.72576537  0.19618026  0.52416004    -0.07540
C583        C  0.72605261  0.21977197  0.48945904     0.05990
C584        C  0.72356276  0.21075738  0.43828210    -0.02560
Br585      Br  0.69724833  0.23513090  0.38947967    -0.02260
H586        H  0.73083042  0.17462620  0.38372719     0.09900
H587        H  0.71966301  0.20059677  0.56312715     0.07920
Br588      Br  0.72410953  0.13663717  0.56152085    -0.02680
C589        C  0.71148049  0.32764732  0.47374228    -0.09320
C590        C  0.73878382  0.30818452  0.49803686     0.06880
C591        C  0.76294536  0.32055031  0.53631144    -0.03090
C592        C  0.75993440  0.35112706  0.54891529    -0.07540
C593        C  0.74123469  0.37152928  0.51643968     0.05990
C594        C  0.71482113  0.35945413  0.47983834    -0.02560
Br595      Br  0.68693561  0.38463995  0.43393060    -0.02260
H596        H  0.69055317  0.31834472  0.44630724     0.09900
H597        H  0.77889006  0.35960303  0.57896861     0.07920
Br598      Br  0.80695440  0.29922802  0.56544695    -0.02680
C599        C  0.29823091  0.50853663  0.52701034    -0.09320
C600        C  0.26628796  0.48788734  0.51943507     0.06880
C601        C  0.23215116  0.49705082  0.49264227    -0.03090
C602        C  0.22959430  0.52657930  0.47588720    -0.07540
C603        C  0.26179748  0.54732998  0.48178777     0.05990
C604        C  0.29665419  0.53786542  0.50742964    -0.02560
Br605      Br  0.34316683  0.56336998  0.51536225    -0.02260
H606        H  0.32428460  0.50188513  0.54858736     0.09900
H607        H  0.20187911  0.53327145  0.45770904     0.07920
Br608      Br  0.18722937  0.47052395  0.47909665    -0.02680
C609        C  0.16383690  0.45436911  0.61698900    -0.09320
C610        C  0.19412803  0.44022957  0.64505252     0.06880
C611        C  0.18276774  0.42336779  0.68682255    -0.03090
C612        C  0.14181000  0.42017077  0.69859418    -0.07540
C613        C  0.11181851  0.43378125  0.66945973     0.05990
C614        C  0.12315497  0.45112510  0.62848529    -0.02560
Br615      Br  0.08449278  0.46927449  0.58483248    -0.02260
H616        H  0.17162270  0.46687501  0.58412304     0.09900
H617        H  0.13343459  0.40786006  0.73164623     0.07920
Br618      Br  0.22193146  0.40524822  0.72960227    -0.02680
C619        C  0.26830374  0.33090554  0.47298385    -0.09320
C620        C  0.23939854  0.31240679  0.49567145     0.06880
C621        C  0.21359549  0.32533720  0.53224123    -0.03090
C622        C  0.21768263  0.35585915  0.54621395    -0.07540
C623        C  0.25002150  0.37366925  0.52860434     0.05990
C624        C  0.27537698  0.36071152  0.49089475    -0.02560
Br625      Br  0.32253461  0.38060154  0.46584180    -0.02260
H626        H  0.28724627  0.32144486  0.44328221     0.09900
H627        H  0.19570273  0.36534010  0.57239641     0.07920
Br628      Br  0.17204940  0.30250407  0.56442606    -0.02680
C629        C  0.20564716  0.02553992  0.48295690    -0.09320
C630        C  0.23101183  0.04911639  0.50017133     0.06880
C631        C  0.25600933  0.04422246  0.54137831    -0.03090
C632        C  0.25869129  0.01545162  0.56107958    -0.07540
C633        C  0.23474831  0.99087787  0.54318232     0.05990
C634        C  0.20622872  0.99693392  0.50518438    -0.02560
Br635      Br  0.16615834  0.96815013  0.48317525    -0.02260
H636        H  0.18606432  0.02918615  0.45124324     0.09900
H637        H  0.28147572  0.01262398  0.58933076     0.07920
Br638      Br  0.29039388  0.07533871  0.56957170    -0.02680
C639        C  0.21120458  0.17719757  0.47961874    -0.09320
C640        C  0.24792248  0.16119142  0.47775450     0.06880
C641        C  0.28387001  0.17666596  0.49055965    -0.03090
C642        C  0.28321717  0.20780272  0.50018226    -0.07540
C643        C  0.24708982  0.22444016  0.49899351     0.05990
C644        C  0.21041051  0.20851947  0.49132470    -0.02560
Br645      Br  0.15857404  0.22729782  0.50052491    -0.02260
H646        H  0.18320728  0.16538527  0.47156557     0.09900
H647        H  0.31146860  0.21919591  0.50850974     0.07920
Br648      Br  0.33499829  0.15661095  0.49719191    -0.02680
C649        C  0.60606537  0.05758784  0.32056710    -0.09320
C650        C  0.57421264  0.07131228  0.34799216     0.06880
C651        C  0.58213519  0.08579247  0.39440179    -0.03090
C652        C  0.62194094  0.08947272  0.40977408    -0.07540
C653        C  0.65401543  0.07933043  0.37895631     0.05990
C654        C  0.64603076  0.06197621  0.33533257    -0.02560
Br655      Br  0.68840479  0.04775687  0.29136747    -0.02260
H656        H  0.60040712  0.04684983  0.28424905     0.09900
H657        H  0.62801767  0.10166561  0.44476479     0.07920
Br658      Br  0.53995513  0.10343913  0.43539633    -0.02680
C659        C  0.39503067  0.08674337  0.37106391    -0.09320
C660        C  0.39379406  0.08973865  0.31921814     0.06880
C661        C  0.35647637  0.08969469  0.29410281    -0.03090
C662        C  0.32060635  0.08950101  0.32192308    -0.07540
C663        C  0.32189552  0.08775390  0.37417902     0.05990
C664        C  0.35939995  0.08499332  0.39854529    -0.02560
Br665      Br  0.36396539  0.07961171  0.46927124    -0.02260
H666        H  0.42383266  0.08594533  0.39021655     0.09900
H667        H  0.29183766  0.09136843  0.30302130     0.07920
Br668      Br  0.35317750  0.09093447  0.22250850    -0.02680
C669        C  0.71053156  0.51152175  0.98692006    -0.09320
C670        C  0.74228758  0.49155580  0.99758887     0.06880
C671        C  0.77314822  0.50141478  0.02964878    -0.03090
C672        C  0.77535806  0.53164700  0.04449144    -0.07540
C673        C  0.74478381  0.55286502  0.03303587     0.05990
C674        C  0.71061745  0.54169969  0.00619004    -0.02560
Br675      Br  0.66235375  0.56494912  0.99673390    -0.02260
H676        H  0.68609024  0.50381263  0.96292060     0.09900
H677        H  0.80291389  0.53830810  0.06328543     0.07920
Br678      Br  0.81568522  0.47498298  0.05075755    -0.02680
C679        C  0.83227809  0.45054499  0.83067664    -0.09320
C680        C  0.83576137  0.44244825  0.88094821     0.06880
C681        C  0.87449557  0.43773697  0.90120262    -0.03090
C682        C  0.90843066  0.43851042  0.87054110    -0.07540
C683        C  0.90493074  0.44553214  0.82017413     0.05990
C684        C  0.86676223  0.45250877  0.80028325    -0.02560
Br685      Br  0.86019933  0.46354457  0.73184618    -0.02260
H686        H  0.80277328  0.45500140  0.81502547     0.09900
H687        H  0.93792557  0.43396849  0.88626624     0.07920
Br688      Br  0.88403946  0.43238139  0.97078276    -0.02680
C689        C  0.79332070  0.03345816  0.02096605    -0.09320
C690        C  0.76593675  0.05572477  0.00571320     0.06880
C691        C  0.74034798  0.04918320  0.96511460    -0.03090
C692        C  0.73858929  0.01978061  0.94512542    -0.07540
C693        C  0.76510060  0.99663812  0.96063383     0.05990
C694        C  0.79437688  0.00454137  0.99738625    -0.02560
Br695      Br  0.83794243  0.97821711  0.01543425    -0.02260
H696        H  0.81382172  0.03858304  0.05158560     0.09900
H697        H  0.71495431  0.01534063  0.91818299     0.07920
Br698      Br  0.70565978  0.07897711  0.93614561    -0.02680
C699        C  0.67877106  0.11578991  0.18443821    -0.09320
C700        C  0.68255709  0.10233021  0.13627808     0.06880
C701        C  0.64735841  0.09226633  0.11102808    -0.03090
C702        C  0.60995955  0.09501298  0.13416441    -0.07540
C703        C  0.60608608  0.10815110  0.18207626     0.05990
C704        C  0.64078809  0.11875579  0.20756384    -0.02560
Br705      Br  0.63835297  0.13631966  0.27410779    -0.02260
H706        H  0.70531455  0.12445233  0.20362318     0.09900
H707        H  0.58338437  0.08702726  0.11417358     0.07920
Br708      Br  0.64651267  0.07686229  0.04326178    -0.02680
C709        C  0.71174194  0.18552018  0.03838171    -0.09320
C710        C  0.74704330  0.16869983  0.02657512     0.06880
C711        C  0.77645760  0.18203398  0.99555419    -0.03090
C712        C  0.76979651  0.21119037  0.97737115    -0.07540
C713        C  0.73648607  0.22859535  0.99386365     0.05990
C714        C  0.70753000  0.21555743  0.02509473    -0.02560
Br715      Br  0.66201755  0.23784104  0.05197006    -0.02260
H716        H  0.68739696  0.17571281  0.05969217     0.09900
H717        H  0.79232227  0.22128807  0.95348924     0.07920
Br718      Br  0.82811065  0.16378090  0.98145061    -0.02680
C719        C  0.77986518  0.33237913  0.01929629    -0.09320
C720        C  0.74454416  0.31604830  0.00781446     0.06880
C721        C  0.71017001  0.33245275  0.99191082    -0.03090
C722        C  0.71411982  0.36321157  0.98005133    -0.07540
C723        C  0.75077920  0.37850537  0.98811224     0.05990
C724        C  0.78242094  0.36330826  0.01182168    -0.02560
Br725      Br  0.82883333  0.38378649  0.03812420    -0.02260
H726        H  0.80602459  0.32106970  0.03441233     0.09900
H727        H  0.68867964  0.37514607  0.96439704     0.07920
Br728      Br  0.65672786  0.31570261  0.99066373    -0.02680
C729        C  0.28740631  0.51016930  0.99807977    -0.09320
C730        C  0.25622826  0.48993428  0.00957168     0.06880
C731        C  0.22597107  0.49929671  0.04356791    -0.03090
C732        C  0.22459101  0.52922223  0.06113543    -0.07540
C733        C  0.25454228  0.55045656  0.04834825     0.05990
C734        C  0.28745498  0.54001688  0.01836247    -0.02560
Br735      Br  0.33350666  0.56482404  0.00448259    -0.02260
H736        H  0.31077112  0.50316118  0.97167871     0.09900
H737        H  0.19834003  0.53592019  0.08295287     0.07920
Br738      Br  0.18246869  0.47296094  0.06209753    -0.02680
C739        C  0.08504504  0.44478893  0.88849252    -0.09320
C740        C  0.08465744  0.45926912  0.84266103     0.06880
C741        C  0.12047408  0.47251043  0.82448236    -0.03090
C742        C  0.15677832  0.46825537  0.84987153    -0.07540
C743        C  0.15761853  0.45148121  0.89358466     0.05990
C744        C  0.12096926  0.44135431  0.91453879    -0.02560
Br745      Br  0.11741952  0.42315770  0.97870930    -0.02260
H746        H  0.05754070  0.43491745  0.90295283     0.09900
H747        H  0.18460178  0.47705974  0.83452549     0.07920
Br748      Br  0.12270276  0.49389285  0.76288452    -0.02680
C749        C  0.26929430  0.32815054  0.98939718    -0.09320
C750        C  0.23144495  0.31520403  0.00087306     0.06880
C751        C  0.19739385  0.33449654  0.00496561    -0.03090
C752        C  0.20148518  0.36533988  0.99726969    -0.07540
C753        C  0.23823272  0.37790075  0.98209912     0.05990
C754        C  0.27266120  0.35914684  0.97891093    -0.02560
Br755      Br  0.32390890  0.37436082  0.95759351    -0.02260
H756        H  0.29613842  0.31408529  0.98780817     0.09900
H757        H  0.17489956  0.37943311  0.00031752     0.07920
Br758      Br  0.14307095  0.32029560  0.01465827    -0.02680
C759        C  0.23373658  0.04021892  0.01813307    -0.09320
C760        C  0.27442743  0.04974556  0.01558840     0.06880
C761        C  0.30453817  0.02705049  0.00676359    -0.03090
C762        C  0.29378311  0.99661823  0.00183294    -0.07540
C763        C  0.25332327  0.98799890  0.99784542     0.05990
C764        C  0.22307242  0.00982600  0.00753563    -0.02560
Br765      Br  0.16708054  0.99936580  0.00203034    -0.02260
H766        H  0.20989418  0.05654800  0.02571846     0.09900
H767        H  0.31712663  0.98008202  0.99237475     0.07920
Br768      Br  0.35982967  0.03479430  0.98887742    -0.02680
C769        C  0.36845736  0.14728347  0.11166974    -0.09320
C770        C  0.37262605  0.13025171  0.06685059     0.06880
C771        C  0.41060180  0.11887692  0.05233947    -0.03090
C772        C  0.44210257  0.11987382  0.08669620    -0.07540
C773        C  0.43609068  0.13297701  0.13463361     0.05990
C774        C  0.40025825  0.14916687  0.14553235    -0.02560
Br775      Br  0.39036638  0.16976359  0.20881453    -0.02260
H776        H  0.33948886  0.15694871  0.12223444     0.09900
H777        H  0.47021543  0.10833734  0.07747936     0.07920
Br778      Br  0.42012624  0.10105418  0.98711968    -0.02680
C779        C  0.24526812  0.21543237  0.03401473    -0.09320
C780        C  0.23653250  0.22636053  0.98625683     0.06880
C781        C  0.22828934  0.20459733  0.94721146    -0.03090
C782        C  0.23465100  0.17354357  0.95498912    -0.07540
C783        C  0.24540077  0.16350831  0.00234855     0.05990
C784        C  0.24527237  0.18453696  0.04299826    -0.02560
Br785      Br  0.25252355  0.17199065  0.11071848    -0.02260
H786        H  0.25371806  0.23063458  0.06459705     0.09900
H787        H  0.23396444  0.15758607  0.92339395     0.07920
Br788      Br  0.21033734  0.21538207  0.88180796    -0.02680
C789        C  0.82523083  0.24728623  0.38383836    -0.09320
C790        C  0.81592919  0.26488093  0.34212319     0.06880
C791        C  0.78574236  0.28727032  0.34794063    -0.03090
C792        C  0.76337023  0.28981404  0.39227267    -0.07540
C793        C  0.77061783  0.27131283  0.43370274     0.05990
C794        C  0.80375700  0.25081366  0.42951353    -0.02560
Br795      Br  0.82379888  0.22884941  0.48521760    -0.02260
H796        H  0.84966300  0.23093359  0.38112655     0.09900
H797        H  0.73958931  0.30638829  0.39295013     0.07920
Br798      Br  0.77546071  0.31717742  0.29839256    -0.02680
C799        C  0.80364723  0.25730211  0.06257124    -0.09320
C800        C  0.76692840  0.27360280  0.06439712     0.06880
C801        C  0.75378827  0.28489089  0.11176593    -0.03090
C802        C  0.77714531  0.28047691  0.15482453    -0.07540
C803        C  0.81362403  0.26377679  0.15335649     0.05990
C804        C  0.82582503  0.25118158  0.10615655    -0.02560
Br805      Br  0.87050911  0.22355730  0.09814110    -0.02260
H806        H  0.81588150  0.24973713  0.02680818     0.09900
H807        H  0.76669341  0.29083946  0.18971326     0.07920
Br808      Br  0.70427987  0.30719003  0.12027837    -0.02680
C809        C  0.17558294  0.28812713  0.42530763    -0.09320
C810        C  0.21299027  0.27341907  0.43169545     0.06880
C811        C  0.22802829  0.25560300  0.39081023    -0.03090
C812        C  0.20432896  0.25078541  0.34746210    -0.07540
C813        C  0.16641773  0.26507474  0.34168945     0.05990
C814        C  0.15298636  0.28477643  0.38117684    -0.02560
Br815      Br  0.10670688  0.31095920  0.37596400    -0.02260
H816        H  0.16394284  0.30317448  0.45460082     0.09900
H817        H  0.21637157  0.23645156  0.31736461     0.07920
Br818      Br  0.28260853  0.24095924  0.38841818    -0.02680
C819        C  0.19801464  0.28408584  0.15010653    -0.09320
C820        C  0.16459849  0.26444220  0.15173246     0.06880
C821        C  0.15342026  0.24900621  0.10649068    -0.03090
C822        C  0.17326680  0.25523782  0.06126976    -0.07540
C823        C  0.20668774  0.27493719  0.05992321     0.05990
C824        C  0.21960969  0.28858277  0.10574265    -0.02560
Br825      Br  0.26817795  0.31216001  0.11165344    -0.02260
H826        H  0.20777100  0.29621242  0.18372479     0.09900
H827        H  0.16293623  0.24417745  0.02692723     0.07920
Br828      Br  0.11429695  0.21697606  0.10370934    -0.02680
C829        C  0.01301085  0.28305204  0.27241381    -0.09320
C830        C  0.03352569  0.25868688  0.24849853     0.06880
C831        C  0.01049461  0.23577435  0.22410752    -0.03090
C832        C  0.96811604  0.23778798  0.22312610    -0.07540
C833        C  0.94758985  0.26215586  0.24694607     0.05990
C834        C  0.97058225  0.28494423  0.27181603    -0.02560
Br835      Br  0.94568360  0.31992836  0.30335335    -0.02260
H836        H  0.03014020  0.30099961  0.29094537     0.09900
H837        H  0.95099443  0.21980329  0.20467096     0.07920
Br838      Br  0.03519736  0.20016164  0.19462899    -0.02680
C839        C  0.67081504  0.27684055  0.55934891    -0.09320
C840        C  0.70732383  0.26047330  0.55811416     0.06880
C841        C  0.72418309  0.25219372  0.60465675    -0.03090
C842        C  0.70244396  0.25713805  0.64928347    -0.07540
C843        C  0.66541248  0.27297517  0.65073816     0.05990
C844        C  0.65092630  0.28429832  0.60475971    -0.02560
Br845      Br  0.60702862  0.31273955  0.60076875    -0.02260
H846        H  0.65813394  0.28460456  0.52459712     0.09900
H847        H  0.71490326  0.24803070  0.68312357     0.07920
Br848      Br  0.77626750  0.23307266  0.61144439    -0.02680
C849        C  0.70352472  0.29108808  0.85012938    -0.09320
C850        C  0.66692165  0.27545067  0.84087013     0.06880
C851        C  0.65454532  0.25418456  0.87644163    -0.03090
C852        C  0.67632977  0.25075159  0.92073857    -0.07540
C853        C  0.71197212  0.26716903  0.93159264     0.05990
C854        C  0.72651621  0.28645442  0.89391145    -0.02560
Br855      Br  0.77964629  0.30370875  0.89624437    -0.02260
H856        H  0.71501572  0.30641954  0.82248035     0.09900
H857        H  0.66520248  0.23426924  0.94644685     0.07920
Br858      Br  0.61081362  0.22613147  0.86509860    -0.02680
C859        C  0.32942289  0.28185847  0.61003461    -0.09320
C860        C  0.31386064  0.26895583  0.65390152     0.06880
C861        C  0.27689843  0.25272496  0.64940663    -0.03090
C862        C  0.25539943  0.25219256  0.60408450    -0.07540
C863        C  0.27108549  0.26496274  0.56046259     0.05990
C864        C  0.30979939  0.27842618  0.56353630    -0.02560
Br865      Br  0.34116780  0.28703561  0.50517520    -0.02260
H866        H  0.35813124  0.29354331  0.61106060     0.09900
H867        H  0.22731893  0.23963579  0.60186531     0.07920
Br868      Br  0.25682379  0.22623239  0.69984209    -0.02680
C869        C  0.27789465  0.28954688  0.84959387    -0.09320
C870        C  0.31543868  0.27452971  0.84390463     0.06880
C871        C  0.32812513  0.25584837  0.88336263    -0.03090
C872        C  0.30436528  0.25339424  0.92669601    -0.07540
C873        C  0.26623941  0.26739838  0.93144923     0.05990
C874        C  0.25283616  0.28526854  0.89149358    -0.02560
Br875      Br  0.19875739  0.30081827  0.88798620    -0.02260
H876        H  0.26688585  0.30374510  0.82011902     0.09900
H877        H  0.31488498  0.23889437  0.95611021     0.07920
Br878      Br  0.37441748  0.22945087  0.87880542    -0.02680
C879        C  0.46791456  0.30061287  0.76956565    -0.09320
C880        C  0.44752488  0.27570807  0.74733692     0.06880
C881        C  0.47094055  0.25178075  0.72587304    -0.03090
C882        C  0.51341046  0.25331955  0.72628351    -0.07540
C883        C  0.53379346  0.27827752  0.74832680     0.05990
C884        C  0.51040613  0.30212422  0.77002594    -0.02560
Br885      Br  0.53482320  0.33817747  0.79811663    -0.02260
H886        H  0.45063309  0.31928618  0.78601889     0.09900
H887        H  0.53068875  0.23460527  0.70995201     0.07920
Br888      Br  0.44670036  0.21548977  0.69836056    -0.02680
loop_ 
_geom_bond_atom_site_label_1 
_geom_bond_atom_site_label_2 
_geom_bond_distance 
_geom_bond_site_symmetry_2 
_ccdc_geom_bond_type 
C1            C2   1.409       .  A
C1            C6   1.412       .  A
C1          C880   1.501       .  S
C2            C3   1.411       .  A
C2            H7   1.083       .  S
C3            C4   1.412       .  A
C3          C870   1.511       .  S
C4            C5   1.412       .  A
C4            H8   1.078       .  S
C5            C6   1.416       .  A
C5          C860   1.517       .  S
C6            H9   1.082       .  S
C10          C11   1.409       .  A
C10          C15   1.408       .  A
C10         C883   1.501       .  S
C11          C12   1.413       .  A
C11          H16   1.083       .  S
C12          C13   1.411       .  A
C12         C850   1.511       .  S
C13          C14   1.419       .  A
C13          H17   1.080       .  S
C14          C15   1.413       .  A
C14         C843   1.515       .  S
C15          H18   1.081       .  S
C19          C20   1.406       .  A
C19          C24   1.409       .  A
C19         C830   1.495       .  S
C20          C21   1.410       .  A
C20          H25   1.083       .  S
C21          C22   1.417       .  A
C21         C820   1.509       .  S
C22          C23   1.413       .  A
C22          H26   1.081       .  S
C23          C24   1.413       .  A
C23         C813   1.512       .  S
C24          H27   1.083       .  S
C28          C29   1.413       .  A
C28          C33   1.407       .  A
C28         C833   1.495       .  S
C29          C30   1.416       .  A
C29          H34   1.081       .  S
C30          C31   1.414       .  A
C30         C803   1.519       .  S
C31          C32   1.412       .  A
C31          H35   1.082       .  S
C32          C33   1.404       .  A
C32         C790   1.500       .  S
C33          H36   1.084       .  S
C37          C38   1.396       .  A
C37          C42   1.412       .  A
C37         C783   1.476       .  S
C38          C39   1.379       .  A
C38          H43   1.086       .  S
C39          C40   1.396       .  A
C39         C770   1.460       .  S
C40          C41   1.406       .  A
C40          H44   1.082       .  S
C41          C42   1.423       .  A
C41         C760   1.503       .  S
C42          H45   1.081   1_554  S
C46          C47   1.388   1_556  D
C46         C780   1.512       .  S
C46         C873   1.516       .  S
C47         C750   1.499       .  S
C47         C823   1.517       .  S
C48          C49   1.404       .  A
C48          C53   1.411       .  A
C48         C753   1.483       .  S
C49          C50   1.394       .  A
C49          H54   1.085       .  S
C50          C51   1.389       .  A
C50         C743   1.470       .  S
C51          C52   1.400       .  A
C51          H55   1.085       .  S
C52          C53   1.412       .  A
C52         C730   1.472   1_556  S
C53          H56   1.083   1_556  S
C57          C58   1.385   1_556  D
C57         C713   1.485       .  S
C57         C853   1.525       .  S
C58         C720   1.498       .  S
C58         C800   1.528       .  S
C59          C60   1.406       .  A
C59          C64   1.411       .  A
C59         C710   1.494       .  S
C60          C61   1.391       .  A
C60          H65   1.083       .  S
C61          C62   1.397       .  A
C61         C700   1.476       .  S
C62          C63   1.403       .  A
C62          H66   1.085       .  S
C63          C64   1.408       .  A
C63         C690   1.476       .  S
C64          H67   1.081   1_554  S
C68          C69   1.405       .  A
C68          C73   1.407       .  A
C68         C723   1.478       .  S
C69          C70   1.398       .  A
C69          H74   1.084       .  S
C70          C71   1.394       .  A
C70         C680   1.474       .  S
C71          C72   1.404       .  A
C71          H75   1.085       .  S
C72          C73   1.408       .  A
C72         C670   1.472       .  S
C73          H76   1.083   1_556  S
O77         Ni85   1.896       .  S
O77          C87   1.279       .  A
O78         Ni85   1.902       .  S
O78          C88   1.278       .  A
O79         Ni85   1.902       .  S
O79          C89   1.276       .  A
O80         Ni85   1.892       .  S
O80          C90   1.278       .  A
O81         Ni86   1.918       .  S
O81          C90   1.281       .  A
O82         Ni86   1.911       .  S
O82          C89   1.281       .  A
O83         Ni86   1.894       .  S
O83          C88   1.278       .  A
O84         Ni86   1.906       .  S
O84          C87   1.277       .  A
Ni85        Ni86   2.396       .  S
C87         C773   1.455       .  S
C88         C650   1.456       .  S
C89         C660   1.454       .  S
C90         C703   1.463       .  S
C91          C92   1.400       .  A
C91          C96   1.410       .  A
C91         C640   1.482       .  S
C92          C93   1.394       .  A
C92          H97   1.085       .  S
C93          C94   1.393       .  A
C93         C663   1.464       .  S
C94          C95   1.401       .  A
C94          H98   1.085       .  S
C95          C96   1.413       .  A
C95         C630   1.475       .  S
C96          H99   1.083       .  S
C100        C101   1.407       .  A
C100        C105   1.416       .  A
C100        C623   1.503       .  S
C101        C102   1.394       .  A
C101        H106   1.081       .  S
C102        C103   1.397       .  A
C102        C610   1.480       .  S
C103        C104   1.399       .  A
C103        H107   1.085       .  S
C104        C105   1.414       .  A
C104        C600   1.478       .  S
C105        H108   1.081       .  S
C109        C110   1.382       .  D
C109        C643   1.495       .  S
C109        C863   1.516       .  S
C110        C620   1.492       .  S
C110        C810   1.517       .  S
C111        C112   1.390       .  D
C111        C583   1.522       .  S
C111        C840   1.520       .  S
C112        C590   1.499       .  S
C112        C793   1.528       .  S
C113        C114   1.401       .  A
C113        C118   1.417       .  A
C113        C580   1.490       .  S
C114        C115   1.392       .  A
C114        H119   1.085       .  S
C115        C116   1.386       .  A
C115        C653   1.464       .  S
C116        C117   1.399       .  A
C116        H120   1.086       .  S
C117        C118   1.411       .  A
C117        C570   1.477       .  S
C118        H121   1.082       .  S
C122        C123   1.401       .  A
C122        C127   1.422       .  A
C122        C593   1.496       .  S
C123        C124   1.379       .  A
C123        H128   1.086       .  S
C124        C125   1.389       .  A
C124        C560   1.453       .  S
C125        C126   1.401       .  A
C125        H129   1.079       .  S
C126        C127   1.431       .  A
C126        C550   1.516       .  S
C127        H130   1.078       .  S
O131       Ni139   1.896       .  S
O131        C141   1.279       .  A
O132       Ni139   1.903   1_655  S
O132        C142   1.278       .  A
O133       Ni139   1.906       .  S
O133        C143   1.279       .  A
O134       Ni139   1.903   1_655  S
O134        C144   1.279       .  A
O135       Ni140   1.915   1_655  S
O135        C144   1.279       .  A
O136       Ni140   1.899       .  S
O136        C143   1.279       .  A
O137       Ni140   1.898   1_655  S
O137        C142   1.278       .  A
O138       Ni140   1.909       .  S
O138        C141   1.278       .  A
Ni139      Ni140   2.396       .  S
C141        C740   1.458       .  S
C142        C563   1.451       .  S
C143        C613   1.462       .  S
C144        C683   1.460       .  S
C145        C146   1.402       .  A
C145        C150   1.411       .  A
C145        C540   1.496       .  S
C146        C147   1.403       .  A
C146        H151   1.083       .  S
C147        C148   1.406       .  A
C147        C530   1.502       .  S
C148        C149   1.413       .  A
C148        H152   1.070       .  S
C149        C150   1.425       .  A
C149        C523   1.528       .  S
C150        H153   1.078       .  S
C154        C155   1.407       .  A
C154        C159   1.411       .  A
C154        C543   1.491       .  S
C155        C156   1.407       .  A
C155        H160   1.083       .  S
C156        C157   1.412       .  A
C156        C513   1.504       .  S
C157        C158   1.413       .  A
C157        H161   1.082       .  S
C158        C159   1.413       .  A
C158        C500   1.513       .  S
C159        H162   1.083       .  S
C163        C164   1.415       .  A
C163        C168   1.407       .  A
C163        C490   1.504       .  S
C164        C165   1.426       .  A
C164        H169   1.080       .  S
C165        C166   1.412       .  A
C165        C483   1.530       .  S
C166        C167   1.407       .  A
C166        H170   1.074       .  S
C167        C168   1.404       .  A
C167        C470   1.495       .  S
C168        H171   1.083       .  S
C172        C173   1.409       .  A
C172        C177   1.409       .  A
C172        C493   1.504       .  S
C173        C174   1.414       .  A
C173        H178   1.083       .  S
C174        C175   1.416       .  A
C174        C460   1.513       .  S
C175        C176   1.415       .  A
C175        H179   1.082       .  S
C176        C177   1.414       .  A
C176        C450   1.511       .  S
C177        H180   1.082       .  S
C181        C182   1.420       .  A
C181        C186   1.398       .  A
C181        C440   1.497       .  S
C182        C183   1.428       .  A
C182        H187   1.080       .  S
C183        C184   1.413       .  A
C183        C633   1.510       .  S
C184        C185   1.388       .  A
C184        H188   1.080       .  S
C185        C186   1.381       .  A
C185        C430   1.477       .  S
C186        H189   1.082       .  S
C190        C191   1.379       .  D
C190        C443   1.494       .  S
C190        C533   1.513       .  S
C191        C420   1.500       .  S
C191        C480   1.505       .  S
C192        C193   1.399       .  A
C192        C197   1.416       .  A
C192        C423   1.483       .  S
C193        C194   1.391       .  A
C193        H198   1.085       .  S
C194        C195   1.386       .  A
C194        C410   1.463       .  S
C195        C196   1.405       .  A
C195        H199   1.084       .  S
C196        C197   1.421       .  A
C196        C603   1.496       .  S
C197        H200   1.082       .  S
C201        C202   1.412       .  A
C201        C206   1.393       .  A
C201        C400   1.473       .  S
C202        C203   1.422       .  A
C202        H207   1.081   1_554  S
C203        C204   1.412       .  A
C203        C733   1.502       .  S
C204        C205   1.393       .  A
C204        H208   1.082       .  S
C205        C206   1.379       .  A
C205        C390   1.463       .  S
C206        H209   1.086       .  S
C210        C211   1.423       .  A
C210        C215   1.404       .  A
C210        C380   1.501       .  S
C211        C212   1.413       .  A
C211        H216   1.082   1_556  S
C212        C213   1.402       .  A
C212        C763   1.475       .  S
C213        C214   1.387       .  A
C213        H217   1.086       .  S
C214        C215   1.393       .  A
C214        C370   1.476       .  S
C215        H218   1.078       .  S
C219        C220   1.383   1_554  D
C219        C383   1.494       .  S
C219        C520   1.507       .  S
C220        C403   1.504       .  S
C220        C473   1.515       .  S
C221        C222   1.389   1_554  D
C221        C360   1.494       .  S
C221        C510   1.526       .  S
C222        C353   1.499       .  S
C222        C463   1.520       .  S
C223        C224   1.409       .  A
C223        C228   1.393       .  A
C223        C363   1.472       .  S
C224        C225   1.420       .  A
C224        H229   1.080   1_556  S
C225        C226   1.412       .  A
C225        C693   1.505       .  S
C226        C227   1.394       .  A
C226        H230   1.081       .  S
C227        C228   1.387       .  A
C227        C340   1.476       .  S
C228        H231   1.084       .  S
C232        C233   1.416       .  A
C232        C237   1.397       .  A
C232        C350   1.489       .  S
C233        C234   1.427       .  A
C233        H238   1.075   1_554  S
C234        C235   1.412       .  A
C234        C673   1.511       .  S
C235        C236   1.388       .  A
C235        H239   1.083       .  S
C236        C237   1.377       .  A
C236        C330   1.458       .  S
C237        H240   1.086       .  S
O241       Ni249   1.908   1_455  S
O241        C251   1.278       .  A
O242       Ni249   1.902       .  S
O242        C252   1.279       .  A
O243       Ni249   1.901   1_455  S
O243        C253   1.279       .  A
O244       Ni249   1.908       .  S
O244        C254   1.278       .  A
O245       Ni250   1.891       .  S
O245        C254   1.276       .  A
O246       Ni250   1.898   1_455  S
O246        C253   1.276       .  A
O247       Ni250   1.908       .  S
O247        C252   1.279       .  A
O248       Ni250   1.895   1_455  S
O248        C251   1.279       .  A
Ni249      Ni250   2.397       .  S
C251        C393   1.461       .  S
C252        C320   1.462       .  S
C253        C413   1.450       .  S
C254        C333   1.444       .  S
C255        C256   1.417       .  A
C255        C260   1.404       .  A
C255        C310   1.498       .  S
C256        C257   1.413       .  A
C256        H261   1.080       .  S
C257        C258   1.406       .  A
C257        C553   1.479       .  S
C258        C259   1.388       .  A
C258        H262   1.085       .  S
C259        C260   1.388       .  A
C259        C323   1.469       .  S
C260        H263   1.084       .  S
C264        C265   1.405       .  A
C264        C269   1.402       .  A
C264        C300   1.467       .  S
C265        C266   1.409       .  A
C265        H270   1.083       .  S
C266        C267   1.404       .  A
C266        C573   1.492       .  S
C267        C268   1.406       .  A
C267        H271   1.080       .  S
C268        C269   1.392       .  A
C268        C290   1.495       .  S
C269        H272   1.082       .  S
C273        C274   1.389       .  D
C273        C313   1.500       .  S
C273        C453   1.523       .  S
C274        C303   1.504       .  S
C274        C503   1.523       .  S
O275       Ni283   1.892       .  S
O275        C285   1.275       .  A
O276       Ni283   1.895       .  S
O276        C286   1.276       .  A
O277       Ni283   1.913       .  S
O277        C287   1.282       .  A
O278       Ni283   1.913       .  S
O278        C288   1.281       .  A
O279       Ni284   1.893       .  S
O279        C288   1.276       .  A
O280       Ni284   1.900       .  S
O280        C287   1.276       .  A
O281       Ni284   1.923       .  S
O281        C286   1.284       .  A
O282       Ni284   1.917       .  S
O282        C285   1.283       .  A
Ni283      Ni284   2.394       .  S
C285        C373   1.460       .  S
C286        C293   1.469       .  S
C287        C433   1.466       .  S
C288        C343   1.461       .  S
C289        C290   1.403       .  A
C289        C294   1.391       .  A
C289        H296   1.082       .  S
C290        C291   1.427       .  A
C291        C292   1.398       .  A
C291       Br298   1.917       .  S
C292        C293   1.393       .  A
C292        H297   1.084       .  S
C293        C294   1.413       .  A
C294       Br295   1.921       .  S
C299        C300   1.400       .  A
C299        C304   1.404       .  A
C299        H306   1.083       .  S
C300        C301   1.401       .  A
C301        C302   1.388       .  A
C301       Br308   1.922       .  S
C302        C303   1.410       .  A
C302        H307   1.082       .  S
C303        C304   1.418       .  A
C304       Br305   1.917       .  S
C309        C310   1.411       .  A
C309        C314   1.391       .  A
C309        H316   1.083       .  S
C310        C311   1.415       .  A
C311        C312   1.403       .  A
C311       Br318   1.919       .  S
C312        C313   1.409       .  A
C312        H317   1.084       .  S
C313        C314   1.407       .  A
C314       Br315   1.922       .  S
C319        C320   1.405       .  A
C319        C324   1.396       .  A
C319        H326   1.084       .  S
C320        C321   1.406       .  A
C321        C322   1.392       .  A
C321       Br328   1.920       .  S
C322        C323   1.404       .  A
C322        H327   1.084       .  S
C323        C324   1.405       .  A
C324       Br325   1.918       .  S
C329        C330   1.402       .  A
C329        C334   1.389       .  A
C329        H336   1.084       .  S
C330        C331   1.405       .  A
C331        C332   1.392       .  A
C331       Br338   1.919       .  S
C332        C333   1.399       .  A
C332        H337   1.085       .  S
C333        C334   1.402       .  A
C334       Br335   1.920       .  S
C339        C340   1.412       .  A
C339        C344   1.395       .  A
C339        H346   1.082       .  S
C340        C341   1.404       .  A
C341        C342   1.392       .  A
C341       Br348   1.920       .  S
C342        C343   1.407       .  A
C342        H347   1.084       .  S
C343        C344   1.400       .  A
C344       Br345   1.918       .  S
C349        C350   1.408       .  A
C349        C354   1.382       .  A
C349        H356   1.085       .  S
C350        C351   1.408   1_554  A
C351        C352   1.409       .  A
C351       Br358   1.915       .  S
C352        C353   1.415       .  A
C352        H357   1.084       .  S
C353        C354   1.407   1_556  A
C354       Br355   1.922       .  S
C359        C360   1.405       .  A
C359        C364   1.390   1_554  A
C359        H366   1.083       .  S
C360        C361   1.417   1_554  A
C361        C362   1.403       .  A
C361       Br368   1.918   1_556  S
C362        C363   1.401       .  A
C362        H367   1.083       .  S
C363        C364   1.408       .  A
C364       Br365   1.922       .  S
C369        C370   1.413       .  A
C369        C374   1.392       .  A
C369        H376   1.083       .  S
C370        C371   1.400       .  A
C371        C372   1.396       .  A
C371       Br378   1.916       .  S
C372        C373   1.409       .  A
C372        H377   1.084       .  S
C373        C374   1.397       .  A
C374       Br375   1.918       .  S
C379        C380   1.405   1_554  A
C379        C384   1.399       .  A
C379        H386   1.081       .  S
C380        C381   1.427       .  A
C381        C382   1.392       .  A
C381       Br388   1.925       .  S
C382        C383   1.395   1_556  A
C382        H387   1.083       .  S
C383        C384   1.418       .  A
C384       Br385   1.917       .  S
C389        C390   1.398       .  A
C389        C394   1.396       .  A
C389        H396   1.083       .  S
C390        C391   1.412       .  A
C391        C392   1.387       .  A
C391       Br398   1.923       .  S
C392        C393   1.398       .  A
C392        H397   1.084       .  S
C393        C394   1.415       .  A
C394       Br395   1.921       .  S
C399        C400   1.405       .  A
C399        C404   1.395   1_554  A
C399        H406   1.084       .  S
C400        C401   1.401       .  A
C401        C402   1.399   1_554  A
C401       Br408   1.917       .  S
C402        C403   1.409       .  A
C402        H407   1.072       .  S
C403        C404   1.413       .  A
C404       Br405   1.918       .  S
C409        C410   1.405       .  A
C409        C414   1.387       .  A
C409        H416   1.080       .  S
C410        C411   1.400       .  A
C411        C412   1.396       .  A
C411       Br418   1.916       .  S
C412        C413   1.407       .  A
C412        H417   1.084       .  S
C413        C414   1.397       .  A
C414       Br415   1.918       .  S
C419        C420   1.403       .  A
C419        C424   1.392       .  A
C419        H426   1.082       .  S
C420        C421   1.416       .  A
C421        C422   1.407       .  A
C421       Br428   1.916       .  S
C422        C423   1.403       .  A
C422        H427   1.083       .  S
C423        C424   1.409       .  A
C424       Br425   1.915       .  S
C429        C430   1.400       .  A
C429        C434   1.396       .  A
C429        H436   1.083       .  S
C430        C431   1.420       .  A
C431        C432   1.391       .  A
C431       Br438   1.920       .  S
C432        C433   1.393       .  A
C432        H437   1.084       .  S
C433        C434   1.416       .  A
C434       Br435   1.921       .  S
C439        C440   1.407       .  A
C439        C444   1.409       .  A
C439        H446   1.082       .  S
C440        C441   1.420       .  A
C441        C442   1.389       .  A
C441       Br448   1.928       .  S
C442        C443   1.397       .  A
C442        H447   1.084       .  S
C443        C444   1.413       .  A
C444       Br445   1.916       .  S
C449        C450   1.412       .  A
C449        C454   1.413       .  A
C449        H456   1.083       .  S
C450        C451   1.415       .  A
C451        C452   1.403       .  A
C451       Br458   1.922       .  S
C452        C453   1.411       .  A
C452        H457   1.083       .  S
C453        C454   1.416       .  A
C454       Br455   1.915       .  S
C459        C460   1.412       .  A
C459        C464   1.412       .  A
C459        H466   1.083       .  S
C460        C461   1.417       .  A
C461        C462   1.403       .  A
C461       Br468   1.922       .  S
C462        C463   1.409       .  A
C462        H467   1.084       .  S
C463        C464   1.415       .  A
C464       Br465   1.916       .  S
C469        C470   1.404       .  A
C469        C474   1.407       .  A
C469        H476   1.083       .  S
C470        C471   1.410       .  A
C471        C472   1.397       .  A
C471       Br478   1.916       .  S
C472        C473   1.406       .  A
C472        H477   1.083       .  S
C473        C474   1.421       .  A
C474       Br475   1.911       .  S
C479        C480   1.394       .  A
C479        C484   1.402       .  A
C479        H486   1.084       .  S
C480        C481   1.408       .  A
C481        C482   1.406       .  A
C481       Br488   1.913       .  S
C482        C483   1.417       .  A
C482        H487   1.079       .  S
C483        C484   1.435       .  A
C484       Br485   1.916       .  S
C489        C490   1.408       .  A
C489        C494   1.409   1_455  A
C489        H496   1.083       .  S
C490        C491   1.415       .  A
C491        C492   1.407   1_455  A
C491       Br498   1.920       .  S
C492        C493   1.408       .  A
C492        H497   1.083       .  S
C493        C494   1.414       .  A
C494       Br495   1.918       .  S
C499        C500   1.413       .  A
C499        C504   1.412       .  A
C499        H506   1.082       .  S
C500        C501   1.418       .  A
C501        C502   1.399       .  A
C501       Br508   1.921       .  S
C502        C503   1.407       .  A
C502        H507   1.083       .  S
C503        C504   1.416       .  A
C504       Br505   1.918       .  S
C509        C510   1.413       .  A
C509        C514   1.411       .  A
C509        H516   1.083       .  S
C510        C511   1.421       .  A
C511        C512   1.397       .  A
C511       Br518   1.922       .  S
C512        C513   1.402       .  A
C512        H517   1.081       .  S
C513        C514   1.416       .  A
C514       Br515   1.918       .  S
C519        C520   1.398       .  A
C519        C524   1.405       .  A
C519        H526   1.081       .  S
C520        C521   1.413       .  A
C521        C522   1.403       .  A
C521       Br528   1.921       .  S
C522        C523   1.415       .  A
C522        H527   1.077       .  S
C523        C524   1.431       .  A
C524       Br525   1.928       .  S
C529        C530   1.412       .  A
C529        C534   1.409       .  A
C529        H536   1.082       .  S
C530        C531   1.415       .  A
C531        C532   1.394       .  A
C531       Br538   1.926       .  S
C532        C533   1.409       .  A
C532        H537   1.078       .  S
C533        C534   1.414       .  A
C534       Br535   1.917       .  S
C539        C540   1.407       .  A
C539        C544   1.406       .  A
C539        H546   1.083       .  S
C540        C541   1.414       .  A
C541        C542   1.404       .  A
C541       Br548   1.920       .  S
C542        C543   1.403       .  A
C542        H547   1.083       .  S
C543        C544   1.411       .  A
C544       Br545   1.918       .  S
C549        C550   1.417       .  A
C549        C554   1.410       .  A
C549        H556   1.079       .  S
C550        C551   1.436       .  A
C551        C552   1.390       .  A
C551       Br558   1.938       .  S
C552        C553   1.393       .  A
C552        H557   1.086       .  S
C553        C554   1.404       .  A
C554       Br555   1.913       .  S
C559        C560   1.399       .  A
C559        C564   1.393       .  A
C559        H566   1.084       .  S
C560        C561   1.404       .  A
C561        C562   1.388       .  A
C561       Br568   1.919       .  S
C562        C563   1.400       .  A
C562        H567   1.085       .  S
C563        C564   1.406       .  A
C564       Br565   1.917       .  S
C569        C570   1.402       .  A
C569        C574   1.389       .  A
C569        H576   1.085       .  S
C570        C571   1.404       .  A
C571        C572   1.407   1_545  A
C571       Br578   1.914       .  S
C572        C573   1.412       .  A
C572        H577   1.082       .  S
C573        C574   1.417   1_565  A
C574       Br575   1.929   1_545  S
C579        C580   1.410       .  A
C579        C584   1.401       .  A
C579        H586   1.084       .  S
C580        C581   1.408       .  A
C581        C582   1.395       .  A
C581       Br588   1.924       .  S
C582        C583   1.412       .  A
C582        H587   1.071       .  S
C583        C584   1.415       .  A
C584       Br585   1.921       .  S
C589        C590   1.416       .  A
C589        C594   1.411       .  A
C589        H596   1.083       .  S
C590        C591   1.399       .  A
C591        C592   1.383       .  A
C591       Br598   1.911       .  S
C592        C593   1.410       .  A
C592        H597   1.079       .  S
C593        C594   1.407       .  A
C594       Br595   1.914       .  S
C599        C600   1.407       .  A
C599        C604   1.408       .  A
C599        H606   1.083       .  S
C600        C601   1.404       .  A
C601        C602   1.390       .  A
C601       Br608   1.922       .  S
C602        C603   1.412       .  A
C602        H607   1.083       .  S
C603        C604   1.411       .  A
C604       Br605   1.916       .  S
C609        C610   1.408       .  A
C609        C614   1.388       .  A
C609        H616   1.080       .  S
C610        C611   1.408       .  A
C611        C612   1.398       .  A
C611       Br618   1.918       .  S
C612        C613   1.407       .  A
C612        H617   1.084       .  S
C613        C614   1.402       .  A
C614       Br615   1.922       .  S
C619        C620   1.404       .  A
C619        C624   1.405       .  A
C619        H626   1.083       .  S
C620        C621   1.403       .  A
C621        C622   1.392       .  A
C621       Br628   1.920       .  S
C622        C623   1.415       .  A
C622        H627   1.082       .  S
C623        C624   1.415       .  A
C624       Br625   1.918       .  S
C629        C630   1.405       .  A
C629        C634   1.408   1_545  A
C629        H636   1.083       .  S
C630        C631   1.400       .  A
C631        C632   1.389       .  A
C631       Br638   1.922       .  S
C632        C633   1.416   1_545  A
C632        H637   1.078       .  S
C633        C634   1.418       .  A
C634       Br635   1.919       .  S
C639        C640   1.403       .  A
C639        C644   1.407       .  A
C639        H646   1.083       .  S
C640        C641   1.410       .  A
C641        C642   1.389       .  A
C641       Br648   1.918       .  S
C642        C643   1.402       .  A
C642        H647   1.083       .  S
C643        C644   1.416       .  A
C644       Br645   1.915       .  S
C649        C650   1.407       .  A
C649        C654   1.393       .  A
C649        H656   1.084       .  S
C650        C651   1.404       .  A
C651        C652   1.389       .  A
C651       Br658   1.920       .  S
C652        C653   1.405       .  A
C652        H657   1.084       .  S
C653        C654   1.401       .  A
C654       Br655   1.918       .  S
C659        C660   1.395       .  A
C659        C664   1.390       .  A
C659        H666   1.084       .  S
C660        C661   1.407       .  A
C661        C662   1.398       .  A
C661       Br668   1.917       .  S
C662        C663   1.400       .  A
C662        H667   1.083       .  S
C663        C664   1.410       .  A
C664       Br665   1.916       .  S
C669        C670   1.404       .  A
C669        C674   1.412   1_556  A
C669        H676   1.083       .  S
C670        C671   1.397   1_556  A
C671        C672   1.381       .  A
C671       Br678   1.921       .  S
C672        C673   1.416       .  A
C672        H677   1.079       .  S
C673        C674   1.422       .  A
C674       Br675   1.917   1_554  S
C679        C680   1.403       .  A
C679        C684   1.402       .  A
C679        H686   1.083       .  S
C680        C681   1.410       .  A
C681        C682   1.388       .  A
C681       Br688   1.907       .  S
C682        C683   1.393       .  A
C682        H687   1.084       .  S
C683        C684   1.408       .  A
C684       Br685   1.917       .  S
C689        C690   1.404       .  A
C689        C694   1.406   1_554  A
C689        H696   1.083       .  S
C690        C691   1.402   1_554  A
C691        C692   1.389       .  A
C691       Br698   1.922       .  S
C692        C693   1.415   1_545  A
C692        H697   1.079       .  S
C693        C694   1.418   1_565  A
C694       Br695   1.919   1_546  S
C699        C700   1.406       .  A
C699        C704   1.402       .  A
C699        H706   1.083       .  S
C700        C701   1.414       .  A
C701        C702   1.384       .  A
C701       Br708   1.915       .  S
C702        C703   1.395       .  A
C702        H707   1.084       .  S
C703        C704   1.410       .  A
C704       Br705   1.919       .  S
C709        C710   1.412       .  A
C709        C714   1.387       .  A
C709        H716   1.082       .  S
C710        C711   1.415   1_554  A
C711        C712   1.403       .  A
C711       Br718   1.919       .  S
C712        C713   1.404       .  A
C712        H717   1.083       .  S
C713        C714   1.402   1_556  A
C714       Br715   1.922       .  S
C719        C720   1.404       .  A
C719        C724   1.385       .  A
C719        H726   1.083       .  S
C720        C721   1.419   1_554  A
C721        C722   1.407       .  A
C721       Br728   1.917       .  S
C722        C723   1.403       .  A
C722        H727   1.083       .  S
C723        C724   1.404   1_556  A
C724       Br725   1.909       .  S
C729        C730   1.403   1_556  A
C729        C734   1.408   1_556  A
C729        H736   1.083       .  S
C730        C731   1.402       .  A
C731        C732   1.388       .  A
C731       Br738   1.923       .  S
C732        C733   1.412       .  A
C732        H737   1.080       .  S
C733        C734   1.417       .  A
C734       Br735   1.918       .  S
C739        C740   1.396       .  A
C739        C744   1.389       .  A
C739        H746   1.084       .  S
C740        C741   1.412       .  A
C741        C742   1.396       .  A
C741       Br748   1.919       .  S
C742        C743   1.399       .  A
C742        H747   1.083       .  S
C743        C744   1.412       .  A
C744       Br745   1.915       .  S
C749        C750   1.413   1_556  A
C749        C754   1.406       .  A
C749        H756   1.082       .  S
C750        C751   1.412       .  A
C751        C752   1.387   1_554  A
C751       Br758   1.923       .  S
C752        C753   1.400       .  A
C752        H757   1.077   1_556  S
C753        C754   1.407       .  A
C754       Br755   1.915       .  S
C759        C760   1.413       .  A
C759        C764   1.407       .  A
C759        H766   1.081       .  S
C760        C761   1.424       .  A
C761        C762   1.391   1_545  A
C761       Br768   1.922   1_554  S
C762        C763   1.396   1_554  A
C762        H767   1.085   1_554  S
C763        C764   1.405   1_566  A
C764       Br765   1.915   1_545  S
C769        C770   1.401       .  A
C769        C774   1.391       .  A
C769        H776   1.081       .  S
C770        C771   1.401       .  A
C771        C772   1.391       .  A
C771       Br778   1.915   1_554  S
C772        C773   1.403       .  A
C772        H777   1.083       .  S
C773        C774   1.408       .  A
C774       Br775   1.922       .  S
C779        C780   1.406   1_554  A
C779        C784   1.389       .  A
C779        H786   1.079       .  S
C780        C781   1.424       .  A
C781        C782   1.405       .  A
C781       Br788   1.918       .  S
C782        C783   1.398   1_556  A
C782        H787   1.083       .  S
C783        C784   1.407       .  A
C784       Br785   1.921       .  S
C789        C790   1.409       .  A
C789        C794   1.414       .  A
C789        H796   1.083       .  S
C790        C791   1.407       .  A
C791        C792   1.395       .  A
C791       Br798   1.924       .  S
C792        C793   1.413       .  A
C792        H797   1.072       .  S
C793        C794   1.421       .  A
C794       Br795   1.917       .  S
C799        C800   1.410       .  A
C799        C804   1.410       .  A
C799        H806   1.080       .  S
C800        C801   1.413       .  A
C801        C802   1.405       .  A
C801       Br808   1.918       .  S
C802        C803   1.412       .  A
C802        H807   1.081       .  S
C803        C804   1.420       .  A
C804       Br805   1.920       .  S
C809        C810   1.409       .  A
C809        C814   1.402       .  A
C809        H816   1.080       .  S
C810        C811   1.415       .  A
C811        C812   1.412       .  A
C811       Br818   1.916       .  S
C812        C813   1.413       .  A
C812        H817   1.082       .  S
C813        C814   1.416       .  A
C814       Br815   1.923       .  S
C819        C820   1.407       .  A
C819        C824   1.400       .  A
C819        H826   1.082       .  S
C820        C821   1.420       .  A
C821        C822   1.406       .  A
C821       Br828   1.917       .  S
C822        C823   1.408       .  A
C822        H827   1.083       .  S
C823        C824   1.416       .  A
C824       Br825   1.920       .  S
C829        C830   1.406       .  A
C829        C834   1.406   1_455  A
C829        H836   1.083       .  S
C830        C831   1.412       .  A
C831        C832   1.405   1_455  A
C831       Br838   1.916       .  S
C832        C833   1.405       .  A
C832        H837   1.083       .  S
C833        C834   1.413       .  A
C834       Br835   1.918       .  S
C839        C840   1.405       .  A
C839        C844   1.408       .  A
C839        H846   1.083       .  S
C840        C841   1.421       .  A
C841        C842   1.401       .  A
C841       Br848   1.928       .  S
C842        C843   1.409       .  A
C842        H847   1.081       .  S
C843        C844   1.422       .  A
C844       Br845   1.921       .  S
C849        C850   1.414       .  A
C849        C854   1.416       .  A
C849        H856   1.083       .  S
C850        C851   1.413       .  A
C851        C852   1.399       .  A
C851       Br858   1.924       .  S
C852        C853   1.411       .  A
C852        H857   1.078       .  S
C853        C854   1.418       .  A
C854       Br855   1.917       .  S
C859        C860   1.412       .  A
C859        C864   1.408       .  A
C859        H866   1.081       .  S
C860        C861   1.422       .  A
C861        C862   1.405       .  A
C861       Br868   1.924       .  S
C862        C863   1.406       .  A
C862        H867   1.083       .  S
C863        C864   1.414       .  A
C864       Br865   1.916       .  S
C869        C870   1.412       .  A
C869        C874   1.407       .  A
C869        H876   1.083       .  S
C870        C871   1.419       .  A
C871        C872   1.403       .  A
C871       Br878   1.923       .  S
C872        C873   1.407       .  A
C872        H877   1.084       .  S
C873        C874   1.415       .  A
C874       Br875   1.918       .  S
C879        C880   1.407       .  A
C879        C884   1.408       .  A
C879        H886   1.083       .  S
C880        C881   1.414       .  A
C881        C882   1.407       .  A
C881       Br888   1.919       .  S
C882        C883   1.407       .  A
C882        H887   1.083       .  S
C883        C884   1.413       .  A
C884       Br885   1.919       .  S
