geometry optimzed in LAMMPS
_audit_creation_date              2020-11-30 
_audit_creation_method            'lammps2cif' 
_symmetry_space_group_name_H-M    'P1' 
_symmetry_Int_Tables_number       1 
_symmetry_cell_setting            triclinic 
loop_ 
_symmetry_equiv_pos_as_xyz 
  x,y,z 
_cell_length_a                    39.22256152 
_cell_length_b                    29.58181399356984 
_cell_length_c                    35.50895196947161 
_cell_angle_alpha                 90.00377224747466 
_cell_angle_beta                  89.46995188545459 
_cell_angle_gamma                 90.00089012193092 
loop_ 
_atom_site_label 
_atom_site_type_symbol 
_atom_site_fract_x 
_atom_site_fract_y 
_atom_site_fract_z 
_atom_site_charge 
C1          C  0.07494980  0.32528091  0.98736112     0.88000
C2          C  0.09629084  0.33226578  0.02290648    -0.52300
C3          C  0.10684926  0.37578916  0.02760376     0.10900
C4          C  0.09519532  0.40827729  0.49648458     0.21800
C5          C  0.04552676  0.35923184  0.99081728    -0.53000
C6          C  0.05624757  0.40270079  0.99561389     0.11000
C7          C  0.09727844  0.34277236  0.45483519    -0.52500
C8          C  0.10784312  0.38629308  0.45970146     0.11600
H9          H  0.10243524  0.30535298  0.04253406     0.16100
H10         H  0.10386443  0.44373461  0.50039012     0.01800
H11         H  0.01877977  0.34979906  0.98972956     0.16400
H12         H  0.10434239  0.32254548  0.43043872     0.16200
C13         C  0.42775029  0.65232455  0.02430702     0.88000
C14         C  0.40542193  0.63482991  0.05683235    -0.52300
C15         C  0.39486696  0.59130371  0.05197045     0.10900
C16         C  0.40752480  0.56931814  0.01519105     0.21800
C17         C  0.45718169  0.61838589  0.02085699    -0.53000
C18         C  0.44647186  0.57491176  0.01606478     0.11000
C19         C  0.40641405  0.64532475  0.48876101    -0.52500
C20         C  0.39586592  0.60179701  0.48406701     0.11600
H21         H  0.39834857  0.65506008  0.08122362     0.16100
H22         H  0.39886444  0.53385658  0.01128810     0.01800
H23         H  0.48392639  0.62783076  0.02194269     0.16400
H24         H  0.40026356  0.67223255  0.46913105     0.16200
O25         O  0.22758130  0.59977917  0.23045991    -0.79400
O26         O  0.27450873  0.39817013  0.22111575    -0.64100
O27         O  0.22393816  0.50547095  0.24247230    -1.10700
C28         C  0.30388047  0.52120361  0.34145346     1.07500
O29         O  0.27512551  0.37781728  0.28120918    -0.77300
O30         O  0.24739561  0.43147969  0.33436580    -0.64900
Ni31       Ni  0.21256192  0.54707652  0.20323797     1.34900
C32         C  0.22389908  0.46075769  0.33663354     0.86200
O33         O  0.21827720  0.43344767  0.19145453    -0.77800
O34         O  0.19521541  0.49909169  0.17229591    -0.88100
C35         C  0.27883703  0.36871672  0.24647741     0.85800
O36         O  0.25530070  0.54611385  0.17730073    -0.66300
O37         O  0.30747986  0.47849749  0.33938892    -0.85600
C38         C  0.27880535  0.51684611  0.17504116     0.86600
C39         C  0.19882794  0.45638813  0.17022259     1.08200
H40         H  0.30016576  0.48164203  0.25806421     0.40000
O41         O  0.27877233  0.47212896  0.26920507    -1.08300
O42         O  0.22398575  0.49771572  0.31841189    -0.64900
Ni43       Ni  0.25366567  0.52553866  0.28150969     1.26300
O44         O  0.27872742  0.47989424  0.19327076    -0.65100
O45         O  0.28444074  0.54415072  0.32021531    -0.77400
C46         C  0.22387156  0.60888819  0.26519018     0.86000
O47         O  0.22820567  0.57944020  0.29055650    -0.64600
Ni48       Ni  0.29013901  0.43051735  0.30843934     1.27400
Ni49       Ni  0.24904666  0.45206395  0.23016555     1.26100
H50         H  0.20254883  0.49595613  0.25361532     0.40500
C51         C  0.32493840  0.15232383  0.23730251     0.88000
C52         C  0.34727271  0.13482950  0.20478080    -0.52300
C53         C  0.35782650  0.09130385  0.20964050     0.10900
C54         C  0.34516148  0.06931792  0.24641478     0.21800
C55         C  0.29550612  0.11838430  0.24074249    -0.53000
C56         C  0.30621446  0.07491035  0.24553319     0.11000
C57         C  0.34626802  0.14532503  0.27285286    -0.52500
C58         C  0.35681498  0.10179745  0.27754489     0.11600
H59         H  0.35435123  0.15505988  0.18039342     0.16100
H60         H  0.35382096  0.03385673  0.25031607     0.01800
H61         H  0.26876173  0.12782879  0.23965287     0.16400
H62         H  0.35241579  0.17223348  0.29248638     0.16200
C63         C  0.17772908  0.82527918  0.27422456     0.88000
C64         C  0.15639464  0.83226369  0.23867496    -0.52300
C65         C  0.14583806  0.87578726  0.23397975     0.10900
C66         C  0.15748718  0.90827559  0.26510510     0.21800
C67         C  0.20715349  0.85923030  0.27077833    -0.53000
C68         C  0.19643474  0.90269930  0.26598352     0.11000
C69         C  0.15539489  0.84277076  0.30674698    -0.52500
C70         C  0.14483198  0.88629118  0.30188308     0.11600
H71         H  0.15025258  0.80535044  0.21904378     0.16100
H72         H  0.14881945  0.94373284  0.26120135     0.01800
H73         H  0.23390001  0.84979722  0.27186966     0.16400
H74         H  0.14832562  0.82254372  0.33113954     0.16200
O75         O  0.02512456  0.09977627  0.03114446    -0.79400
O76         O  0.47816719  0.89817751  0.04047706    -0.64100
O77         O  0.02875099  0.00546607  0.01912269    -1.10700
C78         C  0.44879861  0.02121372  0.42015413     1.07500
O79         O  0.47753800  0.87782178  0.48038190    -0.77300
O80         O  0.00526999  0.93147758  0.42722553    -0.64900
Ni81       Ni  0.04013928  0.04707007  0.05835878     1.34900
C82         C  0.02877119  0.96074978  0.42495767     0.86200
O83         O  0.03440670  0.93344323  0.07013466    -0.77800
O84         O  0.05748295  0.99908208  0.08929332    -0.88100
C85         C  0.47383402  0.86872290  0.01511411     0.85800
O86         O  0.49740386  0.04611719  0.08430379    -0.66300
O87         O  0.44519212  0.97850876  0.42221669    -0.85600
C88         C  0.47389435  0.01685548  0.08656328     0.86600
C89         C  0.05386301  0.95637976  0.09136492     1.08200
H90         H  0.45251756  0.98165430  0.00354013     0.40000
O91         O  0.47390817  0.97213554  0.49239511    -1.08300
O92         O  0.02869282  0.99770786  0.44318321    -0.64900
Ni93       Ni  0.99902149  0.02553909  0.48009142     1.26300
O94         O  0.47396362  0.97990397  0.06832928    -0.65100
O95         O  0.46824506  0.04415699  0.44139087    -0.77400
C96         C  0.02882633  0.10888397  0.99641379     0.86000
O97         O  0.02448787  0.07943475  0.47104612    -0.64600
Ni98       Ni  0.46252965  0.93052543  0.45315904     1.27400
Ni99       Ni  0.00363582  0.95206529  0.03142861     1.26100
H100        H  0.05013752  0.99594572  0.00797555     0.40500
C101        C  0.12269209  0.90868900  0.32859727    -0.17000
C102        C  0.10314142  0.92487741  0.35125957     0.07000
C103        C  0.07888480  0.94067613  0.37778265     0.08900
C104        C  0.05681736  0.95138567  0.39990456    -0.17900
C105        C  0.07284716  0.93328858  0.11991469    -0.17000
C106        C  0.08927295  0.91748560  0.14527747     0.07000
C107        C  0.10880541  0.90190390  0.17589789     0.08900
C108        C  0.12561130  0.88984310  0.20234306    -0.17900
C109        C  0.28279966  0.03767461  0.24981394    -0.17000
C110        C  0.26297790  0.00681780  0.25354461     0.07000
C111        C  0.23965585  0.97080832  0.25796974     0.08900
C112        C  0.21983945  0.93994566  0.26170112    -0.17900
C113        C  0.37704122  0.08773490  0.30917968    -0.17000
C114        C  0.39384881  0.07567529  0.33562364     0.07000
C115        C  0.41338176  0.06009734  0.36624427     0.08900
C116        C  0.42980996  0.04429998  0.39160689    -0.17900
C117        C  0.44584911  0.02622238  0.11161712    -0.17000
C118        C  0.42378153  0.03692888  0.13374035     0.07000
C119        C  0.39952154  0.05272080  0.16026377     0.08900
C120        C  0.37996918  0.06890523  0.18292736    -0.17900
C121        C  0.21555225  0.65449811  0.27545039    -0.17000
C122        C  0.20769646  0.69353830  0.27988677     0.07000
C123        C  0.19784593  0.73940506  0.28093900     0.08900
C124        C  0.18900958  0.77836230  0.27907809    -0.17900
C125        C  0.28714859  0.32311097  0.23620472    -0.17000
C126        C  0.29499896  0.28407581  0.23173381     0.07000
C127        C  0.30484165  0.23820929  0.23063147     0.08900
C128        C  0.31366909  0.19924677  0.23245981    -0.17900
C129        C  0.32286933  0.54428760  0.37000434    -0.17000
C130        C  0.33929654  0.56008752  0.39536842     0.07000
C131        C  0.35882846  0.57567025  0.42598979     0.08900
C132        C  0.37563654  0.58773289  0.45243370    -0.17900
C133        C  0.30685481  0.52620706  0.14999217    -0.17000
C134        C  0.32892343  0.53691482  0.12787146     0.07000
C135        C  0.35318153  0.55271282  0.10134972     0.08900
C136        C  0.37273010  0.56890261  0.07868615    -0.17900
C137        C  0.46552733  0.82311682  0.02538647    -0.17000
C138        C  0.45768283  0.78408083  0.02986229     0.07000
C139        C  0.44784605  0.73821224  0.03097310     0.08900
C140        C  0.43902076  0.69924795  0.02914994    -0.17900
C141        C  0.03284475  0.43994771  0.99989941    -0.17000
C142        C  0.01302885  0.47081041  0.00362975     0.07000
C143        C  0.48970674  0.50681934  0.00805167     0.08900
C144        C  0.46988527  0.53767597  0.01178106    -0.17900
C145        C  0.19584894  0.45139974  0.36168213    -0.17000
C146        C  0.17378030  0.44068959  0.38380151     0.07000
C147        C  0.14952504  0.42488591  0.41032278     0.08900
C148        C  0.12997766  0.40869290  0.43298489    -0.17900
C149        C  0.12707963  0.38984555  0.05923890    -0.17000
C150        C  0.14388638  0.40190844  0.08568405     0.07000
C151        C  0.16341823  0.41749425  0.11630512     0.08900
C152        C  0.17984342  0.43329931  0.14166928    -0.17900
C153        C  0.03713994  0.15449450  0.98615403    -0.17000
C154        C  0.04498931  0.19353568  0.98171251     0.07000
C155        C  0.05483347  0.23940468  0.98065175     0.08900
C156        C  0.06366764  0.27836372  0.98250736    -0.17900
C157        C  0.07494986  0.32528086  0.48736107     0.88000
C158        C  0.09629090  0.33226573  0.52290644    -0.52300
C159        C  0.10684926  0.37578914  0.52760378     0.10900
C160        C  0.09519528  0.40827737  0.99648461     0.21800
C161        C  0.04552681  0.35923183  0.49081731    -0.53000
C162        C  0.05624762  0.40270076  0.49561387     0.11000
C163        C  0.09727835  0.34277240  0.95483524    -0.52500
C164        C  0.10784301  0.38629313  0.95970146     0.11600
H165        H  0.10243538  0.30535286  0.54253390     0.16100
H166        H  0.10386434  0.44373466  0.00039018     0.01800
H167        H  0.01877980  0.34979907  0.48972974     0.16400
H168        H  0.10434232  0.32254548  0.93043874     0.16200
C169        C  0.42775032  0.65232456  0.52430704     0.88000
C170        C  0.40542196  0.63482991  0.55683233    -0.52300
C171        C  0.39486699  0.59130369  0.55197044     0.10900
C172        C  0.40752479  0.56931810  0.51519102     0.21800
C173        C  0.45718170  0.61838591  0.52085705    -0.53000
C174        C  0.44647187  0.57491177  0.51606480     0.11000
C175        C  0.40641403  0.64532479  0.98876095    -0.52500
C176        C  0.39586593  0.60179701  0.98406699     0.11600
H177        H  0.39834860  0.65506009  0.58122362     0.16100
H178        H  0.39886448  0.53385661  0.51128800     0.01800
H179        H  0.48392642  0.62783070  0.52194284     0.16400
H180        H  0.40026362  0.67223253  0.96913103     0.16200
O181        O  0.22758143  0.59977908  0.73045993    -0.79400
O182        O  0.27450859  0.39817005  0.72111577    -0.64100
O183        O  0.22393815  0.50547098  0.74247232    -1.10700
C184        C  0.30388049  0.52120356  0.84145335     1.07500
O185        O  0.27512546  0.37781715  0.78120919    -0.77300
O186        O  0.24739559  0.43147953  0.83436564    -0.64900
Ni187      Ni  0.21256199  0.54707650  0.70323799     1.34900
C188        C  0.22389907  0.46075757  0.83663350     0.86200
O189        O  0.21827714  0.43344771  0.69145446    -0.77800
O190        O  0.19521538  0.49909174  0.67229590    -0.88100
C191        C  0.27883696  0.36871662  0.74647741     0.85800
O192        O  0.25530079  0.54611374  0.67730080    -0.66300
O193        O  0.30747994  0.47849744  0.83938876    -0.85600
C194        C  0.27880544  0.51684599  0.67504121     0.86600
C195        C  0.19882786  0.45638818  0.67022256     1.08200
H196        H  0.30016586  0.48164208  0.75806415     0.40000
O197        O  0.27877234  0.47212893  0.76920501    -1.08300
O198        O  0.22398578  0.49771567  0.81841195    -0.64900
Ni199      Ni  0.25366565  0.52553863  0.78150972     1.26300
O200        O  0.27872749  0.47989414  0.69327081    -0.65100
O201        O  0.28444066  0.54415063  0.82021529    -0.77400
C202        C  0.22387164  0.60888819  0.76519019     0.86000
O203        O  0.22820572  0.57944026  0.79055656    -0.64600
Ni204      Ni  0.29013902  0.43051725  0.80843924     1.27400
Ni205      Ni  0.24904662  0.45206395  0.73016552     1.26100
H206        H  0.20254880  0.49595624  0.75361534     0.40500
C207        C  0.32493836  0.15232378  0.73730250     0.88000
C208        C  0.34727269  0.13482946  0.70478076    -0.52300
C209        C  0.35782652  0.09130382  0.70964052     0.10900
C210        C  0.34516148  0.06931789  0.74641478     0.21800
C211        C  0.29550610  0.11838425  0.74074253    -0.53000
C212        C  0.30621447  0.07491032  0.74553311     0.11000
C213        C  0.34626795  0.14532500  0.77285288    -0.52500
C214        C  0.35681494  0.10179741  0.77754489     0.11600
H215        H  0.35435114  0.15505981  0.68039341     0.16100
H216        H  0.35382098  0.03385669  0.75031607     0.01800
H217        H  0.26876172  0.12782875  0.73965301     0.16400
H218        H  0.35241567  0.17223347  0.79248640     0.16200
C219        C  0.17772912  0.82527919  0.77422451     0.88000
C220        C  0.15639473  0.83226379  0.73867488    -0.52300
C221        C  0.14583814  0.87578736  0.73397971     0.10900
C222        C  0.15748719  0.90827566  0.76510514     0.21800
C223        C  0.20715353  0.85923031  0.77077839    -0.53000
C224        C  0.19643477  0.90269934  0.76598362     0.11000
C225        C  0.15539496  0.84277071  0.80674695    -0.52500
C226        C  0.14483202  0.88629113  0.80188309     0.11600
H227        H  0.15025262  0.80535061  0.71904362     0.16100
H228        H  0.14881950  0.94373287  0.76120150     0.01800
H229        H  0.23390004  0.84979723  0.77186976     0.16400
H230        H  0.14832576  0.82254362  0.83113953     0.16200
O231        O  0.02512468  0.09977632  0.53114449    -0.79400
O232        O  0.47816731  0.89817749  0.54047700    -0.64100
O233        O  0.02875081  0.00546619  0.51912281    -1.10700
C234        C  0.44879852  0.02121385  0.92015424     1.07500
O235        O  0.47753784  0.87782186  0.98038194    -0.77300
O236        O  0.00526986  0.93147766  0.92722558    -0.64900
Ni237      Ni  0.04013930  0.04707008  0.55835886     1.34900
C238        C  0.02877116  0.96074974  0.92495765     0.86200
O239        O  0.03440668  0.93344328  0.57013462    -0.77800
O240        O  0.05748295  0.99908206  0.58929339    -0.88100
C241        C  0.47383415  0.86872288  0.51511409     0.85800
O242        O  0.49740391  0.04611726  0.58430390    -0.66300
O243        O  0.44519195  0.97850891  0.92221680    -0.85600
C244        C  0.47389436  0.01685556  0.58656323     0.86600
C245        C  0.05386296  0.95637972  0.59136495     1.08200
H246        H  0.45251738  0.98165408  0.50354007     0.40000
O247        O  0.47390824  0.97213560  0.99239516    -1.08300
O248        O  0.02869285  0.99770785  0.94318314    -0.64900
Ni249      Ni  0.99902153  0.02553907  0.98009141     1.26300
O250        O  0.47396367  0.97990409  0.56832914    -0.65100
O251        O  0.46824504  0.04415703  0.94139097    -0.77400
C252        C  0.02882636  0.10888396  0.49641379     0.86000
O253        O  0.02448783  0.07943480  0.97104608    -0.64600
Ni254      Ni  0.46252951  0.93052556  0.95315913     1.27400
Ni255      Ni  0.00363585  0.95206533  0.53142856     1.26100
H256        H  0.05013716  0.99594590  0.50797576     0.40500
C257        C  0.12269214  0.90868897  0.82859731    -0.17000
C258        C  0.10314152  0.92487754  0.85125958     0.07000
C259        C  0.07888483  0.94067621  0.87778261     0.08900
C260        C  0.05681729  0.95138556  0.89990452    -0.17900
C261        C  0.07284709  0.93328848  0.61991465    -0.17000
C262        C  0.08927289  0.91748542  0.64527741     0.07000
C263        C  0.10880530  0.90190373  0.67589787     0.08900
C264        C  0.12561120  0.88984309  0.70234308    -0.17900
C265        C  0.28279966  0.03767460  0.74981385    -0.17000
C266        C  0.26297791  0.00681783  0.75354464     0.07000
C267        C  0.23965588  0.97080832  0.75796985     0.08900
C268        C  0.21983944  0.93994573  0.76170124    -0.17900
C269        C  0.37704113  0.08773478  0.80917969    -0.17000
C270        C  0.39384870  0.07567523  0.83562368     0.07000
C271        C  0.41338177  0.06009754  0.86624431     0.08900
C272        C  0.42980998  0.04430022  0.89160695    -0.17900
C273        C  0.44584903  0.02622232  0.61161701    -0.17000
C274        C  0.42378145  0.03692870  0.63374031     0.07000
C275        C  0.39952152  0.05272063  0.66026381     0.08900
C276        C  0.37996922  0.06890514  0.68292743    -0.17900
C277        C  0.21555228  0.65449815  0.77545029    -0.17000
C278        C  0.20769644  0.69353831  0.77988673     0.07000
C279        C  0.19784600  0.73940510  0.78093894     0.08900
C280        C  0.18900964  0.77836233  0.77907805    -0.17900
C281        C  0.28714855  0.32311087  0.73620471    -0.17000
C282        C  0.29499901  0.28407574  0.73173381     0.07000
C283        C  0.30484169  0.23820922  0.73063134     0.08900
C284        C  0.31366903  0.19924667  0.73245970    -0.17900
C285        C  0.32286940  0.54428764  0.87000417    -0.17000
C286        C  0.33929664  0.56008753  0.89536828     0.07000
C287        C  0.35882852  0.57567028  0.92598970     0.08900
C288        C  0.37563663  0.58773286  0.95243365    -0.17900
C289        C  0.30685487  0.52620691  0.64999218    -0.17000
C290        C  0.32892350  0.53691471  0.62787149     0.07000
C291        C  0.35318157  0.55271276  0.60134972     0.08900
C292        C  0.37273017  0.56890256  0.57868618    -0.17900
C293        C  0.46552739  0.82311683  0.52538648    -0.17000
C294        C  0.45768273  0.78408090  0.52986239     0.07000
C295        C  0.44784597  0.73821233  0.53097322     0.08900
C296        C  0.43902079  0.69924798  0.52915001    -0.17900
C297        C  0.03284480  0.43994771  0.49989947    -0.17000
C298        C  0.01302887  0.47081040  0.50362972     0.07000
C299        C  0.48970677  0.50681937  0.50805170     0.08900
C300        C  0.46988531  0.53767602  0.51178115    -0.17900
C301        C  0.19584893  0.45139967  0.86168210    -0.17000
C302        C  0.17378028  0.44068961  0.88380154     0.07000
C303        C  0.14952508  0.42488585  0.91032285     0.08900
C304        C  0.12997764  0.40869287  0.93298491    -0.17900
C305        C  0.12707965  0.38984563  0.55923886    -0.17000
C306        C  0.14388649  0.40190857  0.58568392     0.07000
C307        C  0.16341831  0.41749427  0.61630503     0.08900
C308        C  0.17984334  0.43329939  0.64166927    -0.17900
C309        C  0.03713999  0.15449447  0.48615397    -0.17000
C310        C  0.04498925  0.19353570  0.48171257     0.07000
C311        C  0.05483341  0.23940470  0.48065170     0.08900
C312        C  0.06366769  0.27836371  0.48250726    -0.17900
C313        C  0.57494981  0.32528091  0.98736115     0.88000
C314        C  0.59629086  0.33226577  0.02290651    -0.52300
C315        C  0.60684928  0.37578915  0.02760379     0.10900
C316        C  0.59519530  0.40827729  0.49648458     0.21800
C317        C  0.54552679  0.35923187  0.99081739    -0.53000
C318        C  0.55624761  0.40270081  0.99561392     0.11000
C319        C  0.59727842  0.34277237  0.45483519    -0.52500
C320        C  0.60784310  0.38629308  0.45970146     0.11600
H321        H  0.60243523  0.30535296  0.04253408     0.16100
H322        H  0.60386442  0.44373461  0.50039012     0.01800
H323        H  0.51877979  0.34979911  0.98972979     0.16400
H324        H  0.60434237  0.32254548  0.43043872     0.16200
C325        C  0.92775029  0.65232454  0.02430702     0.88000
C326        C  0.90542194  0.63482992  0.05683235    -0.52300
C327        C  0.89486697  0.59130372  0.05197044     0.10900
C328        C  0.90752481  0.56931815  0.01519105     0.21800
C329        C  0.95718166  0.61838587  0.02085699    -0.53000
C330        C  0.94647185  0.57491175  0.01606477     0.11000
C331        C  0.90641403  0.64532475  0.48876101    -0.52500
C332        C  0.89586590  0.60179701  0.48406701     0.11600
H333        H  0.89834855  0.65506008  0.08122361     0.16100
H334        H  0.89886444  0.53385659  0.01128810     0.01800
H335        H  0.98392641  0.62783073  0.02194269     0.16400
H336        H  0.90026354  0.67223255  0.46913105     0.16200
O337        O  0.72758128  0.59977918  0.23045991    -0.79400
O338        O  0.77450874  0.39817012  0.22111575    -0.64100
O339        O  0.72393815  0.50547095  0.24247230    -1.10700
C340        C  0.80388046  0.52120362  0.34145346     1.07500
O341        O  0.77512559  0.37781730  0.28120919    -0.77300
O342        O  0.74739565  0.43147970  0.33436578    -0.64900
Ni343      Ni  0.71256194  0.54707653  0.20323796     1.34900
C344        C  0.72389909  0.46075767  0.33663353     0.86200
O345        O  0.71827719  0.43344767  0.19145453    -0.77800
O346        O  0.69521541  0.49909170  0.17229590    -0.88100
C347        C  0.77883712  0.36871675  0.24647741     0.85800
O348        O  0.75530075  0.54611389  0.17730077    -0.66300
O349        O  0.80747990  0.47849751  0.33938892    -0.85600
C350        C  0.77880537  0.51684609  0.17504113     0.86600
C351        C  0.69882792  0.45638814  0.17022260     1.08200
H352        H  0.80016574  0.48164208  0.25806419     0.40000
O353        O  0.77877233  0.47212896  0.26920507    -1.08300
O354        O  0.72398574  0.49771571  0.31841189    -0.64900
Ni355      Ni  0.75366566  0.52553865  0.28150970     1.26300
O356        O  0.77872741  0.47989422  0.19327073    -0.65100
O357        O  0.78444072  0.54415072  0.32021531    -0.77400
C358        C  0.72387154  0.60888819  0.26519018     0.86000
O359        O  0.72820565  0.57944020  0.29055650    -0.64600
Ni360      Ni  0.79013908  0.43051736  0.30843934     1.27400
Ni361      Ni  0.74904666  0.45206395  0.23016555     1.26100
H362        H  0.70254881  0.49595614  0.25361531     0.40500
C363        C  0.82493839  0.15232382  0.23730250     0.88000
C364        C  0.84727270  0.13482949  0.20478079    -0.52300
C365        C  0.85782652  0.09130385  0.20964051     0.10900
C366        C  0.84516147  0.06931790  0.24641478     0.21800
C367        C  0.79550610  0.11838430  0.24074248    -0.53000
C368        C  0.80621445  0.07491034  0.24553318     0.11000
C369        C  0.84626800  0.14532503  0.27285285    -0.52500
C370        C  0.85681497  0.10179744  0.27754489     0.11600
H371        H  0.85435124  0.15505989  0.18039343     0.16100
H372        H  0.85382093  0.03385672  0.25031608     0.01800
H373        H  0.76876172  0.12782879  0.23965287     0.16400
H374        H  0.85241576  0.17223348  0.29248638     0.16200
C375        C  0.67772908  0.82527917  0.27422456     0.88000
C376        C  0.65639466  0.83226369  0.23867496    -0.52300
C377        C  0.64583812  0.87578728  0.23397972     0.10900
C378        C  0.65748719  0.90827559  0.26510509     0.21800
C379        C  0.70715354  0.85923028  0.27077835    -0.53000
C380        C  0.69643476  0.90269929  0.26598355     0.11000
C381        C  0.65539487  0.84277076  0.30674698    -0.52500
C382        C  0.64483196  0.88629117  0.30188306     0.11600
H383        H  0.65025255  0.80535041  0.21904382     0.16100
H384        H  0.64881946  0.94373284  0.26120134     0.01800
H385        H  0.73390001  0.84979721  0.27186967     0.16400
H386        H  0.64832560  0.82254372  0.33113954     0.16200
O387        O  0.52512453  0.09977627  0.03114445    -0.79400
O388        O  0.97816719  0.89817751  0.04047706    -0.64100
O389        O  0.52875099  0.00546607  0.01912270    -1.10700
C390        C  0.94879859  0.02121371  0.42015414     1.07500
O391        O  0.97753798  0.87782178  0.48038194    -0.77300
O392        O  0.50526999  0.93147759  0.42722553    -0.64900
Ni393      Ni  0.54013924  0.04707008  0.05835878     1.34900
C394        C  0.52877118  0.96074978  0.42495767     0.86200
O395        O  0.53440669  0.93344322  0.07013466    -0.77800
O396        O  0.55748292  0.99908209  0.08929333    -0.88100
C397        C  0.97383406  0.86872290  0.01511411     0.85800
O398        O  0.99740393  0.04611715  0.08430383    -0.66300
O399        O  0.94519211  0.97850876  0.42221670    -0.85600
C400        C  0.97389439  0.01685549  0.08656328     0.86600
C401        C  0.55386299  0.95637976  0.09136492     1.08200
H402        H  0.95251756  0.98165428  0.00354014     0.40000
O403        O  0.97390833  0.97213548  0.49239504    -1.08300
O404        O  0.52869280  0.99770785  0.44318321    -0.64900
Ni405      Ni  0.49902146  0.02553911  0.48009143     1.26300
O406        O  0.97396363  0.97990399  0.06832927    -0.65100
O407        O  0.96824505  0.04415698  0.44139088    -0.77400
C408        C  0.52882636  0.10888397  0.99641379     0.86000
O409        O  0.52448790  0.07943475  0.47104612    -0.64600
Ni410      Ni  0.96252966  0.93052542  0.45315905     1.27400
Ni411      Ni  0.50363581  0.95206529  0.03142861     1.26100
H412        H  0.55013753  0.99594572  0.00797557     0.40500
C413        C  0.62269207  0.90868900  0.32859726    -0.17000
C414        C  0.60314140  0.92487741  0.35125957     0.07000
C415        C  0.57888478  0.94067613  0.37778265     0.08900
C416        C  0.55681735  0.95138567  0.39990456    -0.17900
C417        C  0.57284715  0.93328857  0.11991469    -0.17000
C418        C  0.58927293  0.91748559  0.14527748     0.07000
C419        C  0.60880539  0.90190389  0.17589791     0.08900
C420        C  0.62561132  0.88984310  0.20234306    -0.17900
C421        C  0.78279964  0.03767461  0.24981394    -0.17000
C422        C  0.76297788  0.00681780  0.25354461     0.07000
C423        C  0.73965583  0.97080832  0.25796973     0.08900
C424        C  0.71983944  0.93994566  0.26170112    -0.17900
C425        C  0.87704120  0.08773490  0.30917969    -0.17000
C426        C  0.89384879  0.07567529  0.33562364     0.07000
C427        C  0.91338174  0.06009734  0.36624427     0.08900
C428        C  0.92980994  0.04429998  0.39160689    -0.17900
C429        C  0.94584913  0.02622241  0.11161710    -0.17000
C430        C  0.92378153  0.03692887  0.13374032     0.07000
C431        C  0.89952159  0.05272080  0.16026378     0.08900
C432        C  0.87996927  0.06890527  0.18292742    -0.17900
C433        C  0.71555223  0.65449811  0.27545039    -0.17000
C434        C  0.70769644  0.69353830  0.27988677     0.07000
C435        C  0.69784591  0.73940506  0.28093900     0.08900
C436        C  0.68900957  0.77836230  0.27907810    -0.17900
C437        C  0.78714862  0.32311097  0.23620473    -0.17000
C438        C  0.79499894  0.28407580  0.23173381     0.07000
C439        C  0.80484162  0.23820928  0.23063147     0.08900
C440        C  0.81366908  0.19924677  0.23245981    -0.17900
C441        C  0.82286930  0.54428762  0.37000434    -0.17000
C442        C  0.83929652  0.56008753  0.39536842     0.07000
C443        C  0.85882844  0.57567025  0.42598979     0.08900
C444        C  0.87563652  0.58773289  0.45243370    -0.17900
C445        C  0.80685477  0.52620699  0.14999206    -0.17000
C446        C  0.82892342  0.53691481  0.12787139     0.07000
C447        C  0.85318153  0.55271283  0.10134970     0.08900
C448        C  0.87273010  0.56890262  0.07868614    -0.17900
C449        C  0.96552746  0.82311678  0.02538648    -0.17000
C450        C  0.95768287  0.78408082  0.02986229     0.07000
C451        C  0.94784603  0.73821226  0.03097310     0.08900
C452        C  0.93902076  0.69924796  0.02914994    -0.17900
C453        C  0.53284479  0.43994772  0.99989941    -0.17000
C454        C  0.51302885  0.47081039  0.00362974     0.07000
C455        C  0.98970673  0.50681934  0.00805167     0.08900
C456        C  0.96988526  0.53767597  0.01178106    -0.17900
C457        C  0.69584894  0.45139972  0.36168212    -0.17000
C458        C  0.67378028  0.44068959  0.38380151     0.07000
C459        C  0.64952502  0.42488591  0.41032278     0.08900
C460        C  0.62997764  0.40869290  0.43298489    -0.17900
C461        C  0.62707968  0.38984555  0.05923890    -0.17000
C462        C  0.64388649  0.40190842  0.08568400     0.07000
C463        C  0.66341827  0.41749424  0.11630512     0.08900
C464        C  0.67984340  0.43329932  0.14166929    -0.17900
C465        C  0.53713992  0.15449450  0.98615404    -0.17000
C466        C  0.54498929  0.19353569  0.98171251     0.07000
C467        C  0.55483345  0.23940469  0.98065175     0.08900
C468        C  0.56366761  0.27836373  0.98250737    -0.17900
C469        C  0.57494985  0.32528088  0.48736107     0.88000
C470        C  0.59629088  0.33226574  0.52290644    -0.52300
C471        C  0.60684924  0.37578915  0.52760378     0.10900
C472        C  0.59519534  0.40827737  0.99648463     0.21800
C473        C  0.54552679  0.35923183  0.49081731    -0.53000
C474        C  0.55624760  0.40270076  0.49561387     0.11000
C475        C  0.59727836  0.34277240  0.95483525    -0.52500
C476        C  0.60784307  0.38629310  0.95970150     0.11600
H477        H  0.60243537  0.30535286  0.54253390     0.16100
H478        H  0.60386441  0.44373465  0.00039019     0.01800
H479        H  0.51877978  0.34979907  0.48972974     0.16400
H480        H  0.60434226  0.32254552  0.93043872     0.16200
C481        C  0.92775030  0.65232456  0.52430704     0.88000
C482        C  0.90542194  0.63482991  0.55683233    -0.52300
C483        C  0.89486697  0.59130369  0.55197044     0.10900
C484        C  0.90752477  0.56931810  0.51519102     0.21800
C485        C  0.95718168  0.61838591  0.52085705    -0.53000
C486        C  0.94647185  0.57491176  0.51606480     0.11000
C487        C  0.90641404  0.64532478  0.98876095    -0.52500
C488        C  0.89586593  0.60179702  0.98406700     0.11600
H489        H  0.89834858  0.65506009  0.58122362     0.16100
H490        H  0.89886446  0.53385661  0.51128800     0.01800
H491        H  0.98392640  0.62783070  0.52194284     0.16400
H492        H  0.90026361  0.67223253  0.96913105     0.16200
O493        O  0.72758142  0.59977909  0.73045993    -0.79400
O494        O  0.77450857  0.39817006  0.72111582    -0.64100
O495        O  0.72393813  0.50547099  0.74247238    -1.10700
C496        C  0.80388047  0.52120356  0.84145336     1.07500
O497        O  0.77512545  0.37781714  0.78120921    -0.77300
O498        O  0.74739557  0.43147953  0.83436564    -0.64900
Ni499      Ni  0.71256197  0.54707649  0.70323804     1.34900
C500        C  0.72389905  0.46075757  0.83663349     0.86200
O501        O  0.71827714  0.43344770  0.69145452    -0.77800
O502        O  0.69521532  0.49909172  0.67229603    -0.88100
C503        C  0.77883694  0.36871662  0.74647743     0.85800
O504        O  0.75530076  0.54611372  0.67730080    -0.66300
O505        O  0.80747992  0.47849744  0.83938876    -0.85600
C506        C  0.77880541  0.51684598  0.67504123     0.86600
C507        C  0.69882784  0.45638817  0.67022263     1.08200
H508        H  0.80016585  0.48164206  0.75806417     0.40000
O509        O  0.77877233  0.47212894  0.76920505    -1.08300
O510        O  0.72398576  0.49771568  0.81841196    -0.64900
Ni511      Ni  0.75366564  0.52553864  0.78150974     1.26300
O512        O  0.77872746  0.47989414  0.69327086    -0.65100
O513        O  0.78444065  0.54415063  0.82021529    -0.77400
C514        C  0.72387162  0.60888820  0.76519018     0.86000
O515        O  0.72820570  0.57944027  0.79055656    -0.64600
Ni516      Ni  0.79013901  0.43051724  0.80843926     1.27400
Ni517      Ni  0.74904660  0.45206395  0.73016559     1.26100
H518        H  0.70254878  0.49595627  0.75361540     0.40500
C519        C  0.82493839  0.15232378  0.73730251     0.88000
C520        C  0.84727267  0.13482945  0.70478075    -0.52300
C521        C  0.85782650  0.09130381  0.70964051     0.10900
C522        C  0.84516149  0.06931788  0.74641478     0.21800
C523        C  0.79550613  0.11838426  0.74074257    -0.53000
C524        C  0.80621448  0.07491033  0.74553315     0.11000
C525        C  0.84626806  0.14532500  0.77285284    -0.52500
C526        C  0.85681504  0.10179741  0.77754485     0.11600
H527        H  0.85435110  0.15505981  0.68039340     0.16100
H528        H  0.85382099  0.03385668  0.75031605     0.01800
H529        H  0.76876174  0.12782875  0.73965302     0.16400
H530        H  0.85241583  0.17223345  0.79248638     0.16200
C531        C  0.67772910  0.82527919  0.77422451     0.88000
C532        C  0.65639471  0.83226379  0.73867488    -0.52300
C533        C  0.64583812  0.87578736  0.73397971     0.10900
C534        C  0.65748718  0.90827566  0.76510514     0.21800
C535        C  0.70715351  0.85923031  0.77077839    -0.53000
C536        C  0.69643475  0.90269934  0.76598362     0.11000
C537        C  0.65539494  0.84277071  0.80674695    -0.52500
C538        C  0.64483200  0.88629113  0.80188309     0.11600
H539        H  0.65025260  0.80535061  0.71904362     0.16100
H540        H  0.64881948  0.94373287  0.76120150     0.01800
H541        H  0.73390003  0.84979723  0.77186976     0.16400
H542        H  0.64832574  0.82254362  0.83113953     0.16200
O543        O  0.52512470  0.09977632  0.53114448    -0.79400
O544        O  0.97816731  0.89817751  0.54047704    -0.64100
O545        O  0.52875078  0.00546618  0.51912281    -1.10700
C546        C  0.94879850  0.02121384  0.92015424     1.07500
O547        O  0.97753782  0.87782186  0.98038193    -0.77300
O548        O  0.50526985  0.93147765  0.92722557    -0.64900
Ni549      Ni  0.54013929  0.04707008  0.55835885     1.34900
C550        C  0.52877115  0.96074974  0.92495764     0.86200
O551        O  0.53440667  0.93344328  0.57013460    -0.77800
O552        O  0.55748293  0.99908205  0.58929339    -0.88100
C553        C  0.97383414  0.86872288  0.51511412     0.85800
O554        O  0.99740391  0.04611725  0.58430389    -0.66300
O555        O  0.94519194  0.97850890  0.92221680    -0.85600
C556        C  0.97389435  0.01685556  0.58656322     0.86600
C557        C  0.55386294  0.95637972  0.59136494     1.08200
H558        H  0.95251769  0.98165398  0.50353995     0.40000
O559        O  0.97390823  0.97213558  0.99239516    -1.08300
O560        O  0.52869285  0.99770784  0.94318314    -0.64900
Ni561      Ni  0.49902156  0.02553908  0.98009141     1.26300
O562        O  0.97396366  0.97990410  0.56832912    -0.65100
O563        O  0.96824501  0.04415702  0.94139098    -0.77400
C564        C  0.52882644  0.10888395  0.49641379     0.86000
O565        O  0.52448796  0.07943475  0.97104609    -0.64600
Ni566      Ni  0.96252951  0.93052556  0.95315913     1.27400
Ni567      Ni  0.50363581  0.95206534  0.53142855     1.26100
H568        H  0.55013713  0.99594589  0.50797577     0.40500
C569        C  0.62269212  0.90868897  0.82859731    -0.17000
C570        C  0.60314150  0.92487754  0.85125958     0.07000
C571        C  0.57888481  0.94067621  0.87778261     0.08900
C572        C  0.55681728  0.95138556  0.89990452    -0.17900
C573        C  0.57284707  0.93328847  0.61991464    -0.17000
C574        C  0.58927287  0.91748542  0.64527741     0.07000
C575        C  0.60880528  0.90190373  0.67589787     0.08900
C576        C  0.62561118  0.88984309  0.70234308    -0.17900
C577        C  0.78279964  0.03767461  0.74981385    -0.17000
C578        C  0.76297790  0.00681784  0.75354464     0.07000
C579        C  0.73965587  0.97080833  0.75796985     0.08900
C580        C  0.71983942  0.93994573  0.76170124    -0.17900
C581        C  0.87704122  0.08773477  0.80917968    -0.17000
C582        C  0.89384880  0.07567525  0.83562364     0.07000
C583        C  0.91338181  0.06009754  0.86624432     0.08900
C584        C  0.92980997  0.04430021  0.89160697    -0.17900
C585        C  0.94584901  0.02622232  0.61161701    -0.17000
C586        C  0.92378143  0.03692870  0.63374031     0.07000
C587        C  0.89952150  0.05272063  0.66026381     0.08900
C588        C  0.87996920  0.06890514  0.68292743    -0.17900
C589        C  0.71555226  0.65449815  0.77545029    -0.17000
C590        C  0.70769642  0.69353831  0.77988673     0.07000
C591        C  0.69784598  0.73940510  0.78093894     0.08900
C592        C  0.68900962  0.77836233  0.77907805    -0.17900
C593        C  0.78714853  0.32311087  0.73620471    -0.17000
C594        C  0.79499899  0.28407573  0.73173381     0.07000
C595        C  0.80484167  0.23820921  0.73063135     0.08900
C596        C  0.81366903  0.19924667  0.73245971    -0.17900
C597        C  0.82286938  0.54428764  0.87000417    -0.17000
C598        C  0.83929662  0.56008753  0.89536828     0.07000
C599        C  0.85882850  0.57567028  0.92598970     0.08900
C600        C  0.87563661  0.58773286  0.95243365    -0.17900
C601        C  0.80685485  0.52620689  0.64999219    -0.17000
C602        C  0.82892348  0.53691471  0.62787149     0.07000
C603        C  0.85318155  0.55271276  0.60134972     0.08900
C604        C  0.87273015  0.56890256  0.57868618    -0.17900
C605        C  0.96552737  0.82311684  0.52538653    -0.17000
C606        C  0.95768271  0.78408090  0.52986240     0.07000
C607        C  0.94784595  0.73821233  0.53097322     0.08900
C608        C  0.93902077  0.69924798  0.52915001    -0.17900
C609        C  0.53284478  0.43994770  0.49989947    -0.17000
C610        C  0.51302886  0.47081040  0.50362972     0.07000
C611        C  0.98970677  0.50681936  0.50805170     0.08900
C612        C  0.96988529  0.53767601  0.51178115    -0.17900
C613        C  0.69584892  0.45139967  0.86168210    -0.17000
C614        C  0.67378026  0.44068961  0.88380154     0.07000
C615        C  0.64952507  0.42488586  0.91032284     0.08900
C616        C  0.62997766  0.40869286  0.93298491    -0.17900
C617        C  0.62707963  0.38984563  0.55923887    -0.17000
C618        C  0.64388648  0.40190858  0.58568393     0.07000
C619        C  0.66341830  0.41749429  0.61630504     0.08900
C620        C  0.67984333  0.43329941  0.64166929    -0.17900
C621        C  0.53714008  0.15449446  0.48615398    -0.17000
C622        C  0.54498943  0.19353566  0.48171257     0.07000
C623        C  0.55483359  0.23940465  0.48065170     0.08900
C624        C  0.56366773  0.27836372  0.48250726    -0.17900
loop_ 
_geom_bond_atom_site_label_1 
_geom_bond_atom_site_label_2 
_geom_bond_distance 
_geom_bond_site_symmetry_2 
_ccdc_geom_bond_type 
C1            C2   1.535   1_556  S
C1            C5   1.534       .  S
C1          C163   1.533       .  S
C1          C156   1.467       .  S
C2            H9   1.087       .  S
C2            C3   1.363       .  D
C3          C160   1.537   1_554  S
C3          C149   1.443       .  S
C4            C8   1.537       .  S
C4          C159   1.537       .  S
C4          C162   1.537       .  S
C4           H10   1.112       .  S
C5           H11   1.087       .  S
C5            C6   1.364       .  D
C6          C160   1.537       .  S
C6          C141   1.441       .  S
C7          C157   1.533       .  S
C7           H12   1.087       .  S
C7            C8   1.364       .  D
C8          C148   1.441       .  S
C13          C14   1.533       .  S
C13          C17   1.534       .  S
C13         C175   1.535   1_554  S
C13         C140   1.467       .  S
C14          H21   1.087       .  S
C14          C15   1.364       .  D
C15          C16   1.537       .  S
C15         C136   1.441       .  S
C16          C18   1.537       .  S
C16         C176   1.537   1_554  S
C16          H22   1.112       .  S
C17          H23   1.087       .  S
C17          C18   1.364       .  D
C18         C144   1.441       .  S
C19         C169   1.535       .  S
C19          H24   1.087       .  S
C19          C20   1.363       .  D
C20         C172   1.537       .  S
C20         C132   1.442       .  S
O25         Ni31   1.929       .  S
O25          C46   1.269       .  A
O26         Ni49   1.907       .  S
O26          C35   1.266       .  A
O27         Ni31   1.915       .  S
O27         Ni49   1.910       .  S
O27         Ni43   1.914       .  S
O27          H50   0.966       .  S
C28          O45   1.273       .  A
C28          O37   1.273       .  A
C28         C129   1.436       .  S
O29         Ni48   1.929       .  S
O29          C35   1.269       .  A
O30         Ni48   1.905       .  S
O30          C32   1.267       .  A
Ni31         O34   1.923       .  S
Ni31         O36   1.905       .  S
C32          O42   1.270       .  A
C32         C145   1.435       .  S
O33         Ni49   1.918       .  S
O33          C39   1.273       .  A
O34          C39   1.273       .  A
C35         C125   1.434       .  S
O36          C38   1.267       .  A
O37         Ni48   1.923       .  S
C38          O44   1.270       .  A
C38         C133   1.435       .  S
C39         C152   1.436       .  S
H40          O41   0.966       .  S
O41         Ni49   1.914       .  S
O41         Ni43   1.910       .  S
O41         Ni48   1.915       .  S
O42         Ni43   1.929       .  S
Ni43         O47   1.907       .  S
Ni43         O45   1.918       .  S
O44         Ni49   1.929       .  S
C46          O47   1.266       .  A
C46         C121   1.434       .  S
C51          C52   1.533       .  S
C51          C57   1.535       .  S
C51          C55   1.534       .  S
C51         C128   1.467       .  S
C52          H59   1.087       .  S
C52          C53   1.364       .  D
C53          C54   1.537       .  S
C53         C120   1.441       .  S
C54          C58   1.537       .  S
C54          C56   1.537       .  S
C54          H60   1.112       .  S
C55          H61   1.087       .  S
C55          C56   1.364       .  D
C56         C109   1.441       .  S
C57          H62   1.087       .  S
C57          C58   1.363       .  D
C58         C113   1.443       .  S
C63          C64   1.535       .  S
C63          C69   1.533       .  S
C63          C67   1.534       .  S
C63         C124   1.467       .  S
C64          H71   1.087       .  S
C64          C65   1.363       .  D
C65          C66   1.537       .  S
C65         C108   1.443       .  S
C66          C70   1.537       .  S
C66          C68   1.537       .  S
C66          H72   1.112       .  S
C67          H73   1.087       .  S
C67          C68   1.364       .  D
C68         C112   1.441       .  S
C69          H74   1.087       .  S
C69          C70   1.364       .  D
C70         C101   1.441       .  S
O75         Ni81   1.929       .  S
O75          C96   1.269   1_554  A
O76        Ni411   1.907       .  S
O76          C85   1.266       .  A
O77         Ni81   1.915       .  S
O77         Ni99   1.910   1_545  S
O77        Ni249   1.914   1_454  S
O77         H100   0.966   1_545  S
C78          O95   1.273       .  A
C78          O87   1.273   1_545  A
C78         C116   1.436       .  S
O79         Ni98   1.929       .  S
O79         C241   1.269       .  A
O80        Ni410   1.905   1_455  S
O80          C82   1.267       .  A
Ni81         O84   1.923   1_545  S
Ni81        O398   1.905   1_455  S
C82          O92   1.270       .  A
C82         C104   1.435       .  S
O83         Ni99   1.918       .  S
O83          C89   1.273       .  A
O84          C89   1.273       .  A
C85         O235   1.269   1_554  A
C85         C137   1.434       .  S
O86        Ni393   1.905       .  S
O86          C88   1.267       .  A
O87         Ni98   1.923       .  S
C88          O94   1.270   1_545  A
C88         C117   1.435       .  S
C89         C105   1.436       .  S
H90         O247   0.966   1_554  S
O91         Ni98   1.915       .  S
O91        Ni567   1.914       .  S
O91        Ni405   1.910   1_565  S
O91         H246   0.966       .  S
O92         Ni93   1.929   1_465  S
Ni93         O97   1.907   1_655  S
Ni93        O407   1.918       .  S
Ni93        O233   1.914   1_655  S
Ni93        O403   1.910   1_545  S
O94        Ni411   1.929       .  S
O95        Ni405   1.918       .  S
C96         O253   1.266       .  A
C96         C153   1.434       .  S
O97         C252   1.266       .  A
Ni98        O392   1.905       .  S
Ni99        O388   1.907   1_455  S
Ni99        O406   1.929   1_455  S
Ni99        O559   1.914   1_454  S
C101        C102   1.206       .  T
C102        C103   1.412       .  S
C103        C104   1.206       .  T
C105        C106   1.206       .  T
C106        C107   1.413       .  S
C107        C108   1.206       .  T
C109        C110   1.206       .  T
C110        C111   1.412   1_545  S
C111        C112   1.206       .  T
C113        C114   1.206       .  T
C114        C115   1.413       .  S
C115        C116   1.206       .  T
C117        C118   1.206       .  T
C118        C119   1.412       .  S
C119        C120   1.206       .  T
C121        C122   1.205       .  T
C122        C123   1.411       .  S
C123        C124   1.205       .  T
C125        C126   1.205       .  T
C126        C127   1.411       .  S
C127        C128   1.205       .  T
C129        C130   1.206       .  T
C130        C131   1.413       .  S
C131        C132   1.206       .  T
C133        C134   1.206       .  T
C134        C135   1.412       .  S
C135        C136   1.206       .  T
C137        C138   1.205       .  T
C138        C139   1.411       .  S
C139        C140   1.205       .  T
C141        C142   1.206   1_556  T
C142        C455   1.412   1_455  S
C143        C144   1.206       .  T
C143        C454   1.412       .  S
C145        C146   1.206       .  T
C146        C147   1.412       .  S
C147        C148   1.206       .  T
C149        C150   1.206       .  T
C150        C151   1.413       .  S
C151        C152   1.206       .  T
C153        C154   1.205       .  T
C154        C155   1.411       .  S
C155        C156   1.205       .  T
C157        C158   1.535       .  S
C157        C161   1.534       .  S
C157        C312   1.467       .  S
C158        H165   1.087       .  S
C158        C159   1.363       .  D
C159        C305   1.443       .  S
C160        C164   1.537       .  S
C160        H166   1.112   1_556  S
C161        H167   1.087       .  S
C161        C162   1.364       .  D
C162        C297   1.441       .  S
C163        H168   1.087       .  S
C163        C164   1.364       .  D
C164        C304   1.441       .  S
C169        C170   1.533       .  S
C169        C173   1.534       .  S
C169        C296   1.467       .  S
C170        H177   1.087       .  S
C170        C171   1.364       .  D
C171        C172   1.537       .  S
C171        C292   1.441       .  S
C172        C174   1.537       .  S
C172        H178   1.112       .  S
C173        H179   1.087       .  S
C173        C174   1.364       .  D
C174        C300   1.441       .  S
C175        H180   1.087       .  S
C175        C176   1.363       .  D
C176        C288   1.442       .  S
O181       Ni187   1.929       .  S
O181        C202   1.269       .  A
O182       Ni205   1.907       .  S
O182        C191   1.266       .  A
O183       Ni187   1.915       .  S
O183       Ni205   1.910       .  S
O183       Ni199   1.914       .  S
O183        H206   0.966       .  S
C184        O201   1.273       .  A
C184        O193   1.273       .  A
C184        C285   1.436       .  S
O185       Ni204   1.929       .  S
O185        C191   1.269       .  A
O186       Ni204   1.905       .  S
O186        C188   1.267       .  A
Ni187       O190   1.923       .  S
Ni187       O192   1.905       .  S
C188        O198   1.270       .  A
C188        C301   1.435       .  S
O189       Ni205   1.918       .  S
O189        C195   1.273       .  A
O190        C195   1.273       .  A
C191        C281   1.434       .  S
O192        C194   1.267       .  A
O193       Ni204   1.923       .  S
C194        O200   1.270       .  A
C194        C289   1.435       .  S
C195        C308   1.436       .  S
H196        O197   0.966       .  S
O197       Ni205   1.914       .  S
O197       Ni199   1.910       .  S
O197       Ni204   1.915       .  S
O198       Ni199   1.929       .  S
Ni199       O203   1.907       .  S
Ni199       O201   1.918       .  S
O200       Ni205   1.929       .  S
C202        O203   1.266       .  A
C202        C277   1.434       .  S
C207        C208   1.533       .  S
C207        C213   1.535       .  S
C207        C211   1.534       .  S
C207        C284   1.467       .  S
C208        H215   1.087       .  S
C208        C209   1.364       .  D
C209        C210   1.537       .  S
C209        C276   1.441       .  S
C210        C214   1.537       .  S
C210        C212   1.537       .  S
C210        H216   1.112       .  S
C211        H217   1.087       .  S
C211        C212   1.364       .  D
C212        C265   1.441       .  S
C213        H218   1.087       .  S
C213        C214   1.363       .  D
C214        C269   1.443       .  S
C219        C220   1.535       .  S
C219        C225   1.533       .  S
C219        C223   1.534       .  S
C219        C280   1.467       .  S
C220        H227   1.087       .  S
C220        C221   1.363       .  D
C221        C222   1.537       .  S
C221        C264   1.443       .  S
C222        C226   1.537       .  S
C222        C224   1.537       .  S
C222        H228   1.112       .  S
C223        H229   1.087       .  S
C223        C224   1.364       .  D
C224        C268   1.441       .  S
C225        H230   1.087       .  S
C225        C226   1.364       .  D
C226        C257   1.441       .  S
O231       Ni237   1.929       .  S
O231        C252   1.269       .  A
O232       Ni567   1.907       .  S
O232        C241   1.266       .  A
O233       Ni237   1.915       .  S
O233       Ni255   1.910   1_545  S
O233        H256   0.966   1_545  S
C234        O251   1.273       .  A
C234        O243   1.273   1_545  A
C234        C272   1.436       .  S
O235       Ni254   1.929       .  S
O236       Ni566   1.905   1_455  S
O236        C238   1.267       .  A
Ni237       O240   1.923   1_545  S
Ni237       O554   1.905   1_455  S
C238        O248   1.270       .  A
C238        C260   1.435       .  S
O239       Ni255   1.918       .  S
O239        C245   1.273       .  A
O240        C245   1.273       .  A
C241        C293   1.434       .  S
O242       Ni549   1.905       .  S
O242        C244   1.267       .  A
O243       Ni254   1.923       .  S
C244        O250   1.270   1_545  A
C244        C273   1.435       .  S
C245        C261   1.436       .  S
O247       Ni411   1.914   1_556  S
O247       Ni561   1.910   1_565  S
O247       Ni254   1.915       .  S
O248       Ni249   1.929   1_465  S
Ni249       O253   1.907   1_655  S
Ni249       O563   1.918       .  S
Ni249       O559   1.910   1_545  S
O250       Ni567   1.929       .  S
O251       Ni561   1.918       .  S
C252        C309   1.434       .  S
Ni254       O548   1.905       .  S
Ni255       O544   1.907   1_455  S
Ni255       O562   1.929   1_455  S
Ni255       O403   1.914   1_455  S
C257        C258   1.206       .  T
C258        C259   1.412       .  S
C259        C260   1.206       .  T
C261        C262   1.206       .  T
C262        C263   1.413       .  S
C263        C264   1.206       .  T
C265        C266   1.206       .  T
C266        C267   1.412   1_545  S
C267        C268   1.206       .  T
C269        C270   1.206       .  T
C270        C271   1.413       .  S
C271        C272   1.206       .  T
C273        C274   1.206       .  T
C274        C275   1.412       .  S
C275        C276   1.206       .  T
C277        C278   1.205       .  T
C278        C279   1.411       .  S
C279        C280   1.205       .  T
C281        C282   1.205       .  T
C282        C283   1.411       .  S
C283        C284   1.205       .  T
C285        C286   1.206       .  T
C286        C287   1.413       .  S
C287        C288   1.206       .  T
C289        C290   1.206       .  T
C290        C291   1.412       .  S
C291        C292   1.206       .  T
C293        C294   1.205       .  T
C294        C295   1.411       .  S
C295        C296   1.205       .  T
C297        C298   1.206       .  T
C298        C611   1.412   1_455  S
C299        C300   1.206       .  T
C299        C610   1.412       .  S
C301        C302   1.206       .  T
C302        C303   1.412       .  S
C303        C304   1.206       .  T
C305        C306   1.206       .  T
C306        C307   1.413       .  S
C307        C308   1.206       .  T
C309        C310   1.205       .  T
C310        C311   1.411       .  S
C311        C312   1.205       .  T
C313        C314   1.535   1_556  S
C313        C475   1.533       .  S
C313        C317   1.534       .  S
C313        C468   1.467       .  S
C314        H321   1.087       .  S
C314        C315   1.363       .  D
C315        C472   1.537   1_554  S
C315        C461   1.443       .  S
C316        C471   1.537       .  S
C316        C320   1.537       .  S
C316        C474   1.537       .  S
C316        H322   1.112       .  S
C317        H323   1.087       .  S
C317        C318   1.364       .  D
C318        C472   1.537       .  S
C318        C453   1.441       .  S
C319        C469   1.533       .  S
C319        H324   1.087       .  S
C319        C320   1.364       .  D
C320        C460   1.441       .  S
C325        C326   1.533       .  S
C325        C487   1.535   1_554  S
C325        C329   1.534       .  S
C325        C452   1.467       .  S
C326        H333   1.087       .  S
C326        C327   1.364       .  D
C327        C328   1.537       .  S
C327        C448   1.441       .  S
C328        C488   1.537   1_554  S
C328        C330   1.537       .  S
C328        H334   1.112       .  S
C329        H335   1.087       .  S
C329        C330   1.364       .  D
C330        C456   1.441       .  S
C331        C481   1.535       .  S
C331        H336   1.087       .  S
C331        C332   1.363       .  D
C332        C484   1.537       .  S
C332        C444   1.442       .  S
O337       Ni343   1.929       .  S
O337        C358   1.269       .  A
O338       Ni361   1.907       .  S
O338        C347   1.266       .  A
O339       Ni343   1.915       .  S
O339       Ni361   1.910       .  S
O339       Ni355   1.914       .  S
O339        H362   0.966       .  S
C340        O357   1.273       .  A
C340        O349   1.273       .  A
C340        C441   1.436       .  S
O341       Ni360   1.929       .  S
O341        C347   1.269       .  A
O342       Ni360   1.905       .  S
O342        C344   1.267       .  A
Ni343       O346   1.923       .  S
Ni343       O348   1.905       .  S
C344        O354   1.270       .  A
C344        C457   1.435       .  S
O345       Ni361   1.918       .  S
O345        C351   1.273       .  A
O346        C351   1.273       .  A
C347        C437   1.434       .  S
O348        C350   1.267       .  A
O349       Ni360   1.923       .  S
C350        O356   1.270       .  A
C350        C445   1.435       .  S
C351        C464   1.436       .  S
H352        O353   0.966       .  S
O353       Ni361   1.914       .  S
O353       Ni355   1.910       .  S
O353       Ni360   1.915       .  S
O354       Ni355   1.929       .  S
Ni355       O359   1.907       .  S
Ni355       O357   1.918       .  S
O356       Ni361   1.929       .  S
C358        O359   1.266       .  A
C358        C433   1.434       .  S
C363        C364   1.533       .  S
C363        C369   1.535       .  S
C363        C367   1.534       .  S
C363        C440   1.467       .  S
C364        H371   1.087       .  S
C364        C365   1.364       .  D
C365        C366   1.537       .  S
C365        C432   1.441       .  S
C366        C370   1.537       .  S
C366        C368   1.537       .  S
C366        H372   1.112       .  S
C367        H373   1.087       .  S
C367        C368   1.364       .  D
C368        C421   1.441       .  S
C369        H374   1.087       .  S
C369        C370   1.363       .  D
C370        C425   1.443       .  S
C375        C376   1.535       .  S
C375        C381   1.533       .  S
C375        C379   1.534       .  S
C375        C436   1.467       .  S
C376        H383   1.087       .  S
C376        C377   1.363       .  D
C377        C378   1.537       .  S
C377        C420   1.443       .  S
C378        C382   1.537       .  S
C378        C380   1.537       .  S
C378        H384   1.112       .  S
C379        H385   1.087       .  S
C379        C380   1.364       .  D
C380        C424   1.441       .  S
C381        H386   1.087       .  S
C381        C382   1.364       .  D
C382        C413   1.441       .  S
O387       Ni393   1.929       .  S
O387        C408   1.269   1_554  A
O388        C397   1.266       .  A
O389       Ni393   1.915       .  S
O389       Ni411   1.910   1_545  S
O389       Ni561   1.914   1_554  S
O389        H412   0.966   1_545  S
C390        O407   1.273       .  A
C390        O399   1.273   1_545  A
C390        C428   1.436       .  S
O391       Ni410   1.929       .  S
O391        C553   1.269       .  A
O392        C394   1.267       .  A
Ni393       O396   1.923   1_545  S
C394        O404   1.270       .  A
C394        C416   1.435       .  S
O395       Ni411   1.918       .  S
O395        C401   1.273       .  A
O396        C401   1.273       .  A
C397        O547   1.269   1_554  A
C397        C449   1.434       .  S
O398        C400   1.267       .  A
O399       Ni410   1.923       .  S
C400        O406   1.270   1_545  A
C400        C429   1.435       .  S
C401        C417   1.436       .  S
H402        O559   0.966   1_554  S
O403       Ni410   1.915       .  S
O403        H558   0.966       .  S
O404       Ni405   1.929   1_565  S
Ni405       O409   1.907       .  S
Ni405       O545   1.914       .  S
C408        O565   1.266       .  A
C408        C465   1.434       .  S
O409        C564   1.266       .  A
C413        C414   1.206       .  T
C414        C415   1.412       .  S
C415        C416   1.206       .  T
C417        C418   1.206       .  T
C418        C419   1.413       .  S
C419        C420   1.206       .  T
C421        C422   1.206       .  T
C422        C423   1.412   1_545  S
C423        C424   1.206       .  T
C425        C426   1.206       .  T
C426        C427   1.413       .  S
C427        C428   1.206       .  T
C429        C430   1.206       .  T
C430        C431   1.412       .  S
C431        C432   1.206       .  T
C433        C434   1.205       .  T
C434        C435   1.411       .  S
C435        C436   1.205       .  T
C437        C438   1.205       .  T
C438        C439   1.411       .  S
C439        C440   1.205       .  T
C441        C442   1.206       .  T
C442        C443   1.413       .  S
C443        C444   1.206       .  T
C445        C446   1.206       .  T
C446        C447   1.412       .  S
C447        C448   1.206       .  T
C449        C450   1.205       .  T
C450        C451   1.411       .  S
C451        C452   1.205       .  T
C453        C454   1.206   1_556  T
C455        C456   1.206       .  T
C457        C458   1.206       .  T
C458        C459   1.412       .  S
C459        C460   1.206       .  T
C461        C462   1.206       .  T
C462        C463   1.413       .  S
C463        C464   1.206       .  T
C465        C466   1.205       .  T
C466        C467   1.411       .  S
C467        C468   1.205       .  T
C469        C470   1.535       .  S
C469        C473   1.534       .  S
C469        C624   1.467       .  S
C470        H477   1.087       .  S
C470        C471   1.363       .  D
C471        C617   1.443       .  S
C472        C476   1.537       .  S
C472        H478   1.112   1_556  S
C473        H479   1.087       .  S
C473        C474   1.364       .  D
C474        C609   1.441       .  S
C475        H480   1.087       .  S
C475        C476   1.364       .  D
C476        C616   1.441       .  S
C481        C482   1.533       .  S
C481        C485   1.534       .  S
C481        C608   1.467       .  S
C482        H489   1.087       .  S
C482        C483   1.364       .  D
C483        C484   1.537       .  S
C483        C604   1.441       .  S
C484        C486   1.537       .  S
C484        H490   1.112       .  S
C485        H491   1.087       .  S
C485        C486   1.364       .  D
C486        C612   1.441       .  S
C487        H492   1.087       .  S
C487        C488   1.363       .  D
C488        C600   1.442       .  S
O493       Ni499   1.929       .  S
O493        C514   1.269       .  A
O494       Ni517   1.907       .  S
O494        C503   1.266       .  A
O495       Ni499   1.915       .  S
O495       Ni517   1.910       .  S
O495       Ni511   1.914       .  S
O495        H518   0.966       .  S
C496        O513   1.273       .  A
C496        O505   1.273       .  A
C496        C597   1.436       .  S
O497       Ni516   1.929       .  S
O497        C503   1.269       .  A
O498       Ni516   1.905       .  S
O498        C500   1.267       .  A
Ni499       O502   1.923       .  S
Ni499       O504   1.905       .  S
C500        O510   1.270       .  A
C500        C613   1.435       .  S
O501       Ni517   1.918       .  S
O501        C507   1.273       .  A
O502        C507   1.273       .  A
C503        C593   1.434       .  S
O504        C506   1.267       .  A
O505       Ni516   1.923       .  S
C506        O512   1.270       .  A
C506        C601   1.435       .  S
C507        C620   1.436       .  S
H508        O509   0.966       .  S
O509       Ni517   1.914       .  S
O509       Ni511   1.910       .  S
O509       Ni516   1.915       .  S
O510       Ni511   1.929       .  S
Ni511       O515   1.907       .  S
Ni511       O513   1.918       .  S
O512       Ni517   1.929       .  S
C514        O515   1.266       .  A
C514        C589   1.434       .  S
C519        C520   1.533       .  S
C519        C525   1.535       .  S
C519        C523   1.534       .  S
C519        C596   1.467       .  S
C520        H527   1.087       .  S
C520        C521   1.364       .  D
C521        C522   1.537       .  S
C521        C588   1.441       .  S
C522        C526   1.537       .  S
C522        C524   1.537       .  S
C522        H528   1.112       .  S
C523        H529   1.087       .  S
C523        C524   1.364       .  D
C524        C577   1.441       .  S
C525        H530   1.087       .  S
C525        C526   1.363       .  D
C526        C581   1.443       .  S
C531        C532   1.535       .  S
C531        C537   1.533       .  S
C531        C535   1.534       .  S
C531        C592   1.467       .  S
C532        H539   1.087       .  S
C532        C533   1.363       .  D
C533        C534   1.537       .  S
C533        C576   1.443       .  S
C534        C538   1.537       .  S
C534        C536   1.537       .  S
C534        H540   1.112       .  S
C535        H541   1.087       .  S
C535        C536   1.364       .  D
C536        C580   1.441       .  S
C537        H542   1.087       .  S
C537        C538   1.364       .  D
C538        C569   1.441       .  S
O543       Ni549   1.929       .  S
O543        C564   1.269       .  A
O544        C553   1.266       .  A
O545       Ni549   1.915       .  S
O545       Ni567   1.910   1_545  S
O545        H568   0.966   1_545  S
C546        O563   1.273       .  A
C546        O555   1.273   1_545  A
C546        C584   1.436       .  S
O547       Ni566   1.929       .  S
O548        C550   1.267       .  A
Ni549       O552   1.923   1_545  S
C550        O560   1.270       .  A
C550        C572   1.435       .  S
O551       Ni567   1.918       .  S
O551        C557   1.273       .  A
O552        C557   1.273       .  A
C553        C605   1.434       .  S
O554        C556   1.267       .  A
O555       Ni566   1.923       .  S
C556        O562   1.270   1_545  A
C556        C585   1.435       .  S
C557        C573   1.436       .  S
O559       Ni566   1.915       .  S
O560       Ni561   1.929   1_565  S
Ni561       O565   1.907       .  S
C564        C621   1.434       .  S
C569        C570   1.206       .  T
C570        C571   1.412       .  S
C571        C572   1.206       .  T
C573        C574   1.206       .  T
C574        C575   1.413       .  S
C575        C576   1.206       .  T
C577        C578   1.206       .  T
C578        C579   1.412   1_545  S
C579        C580   1.206       .  T
C581        C582   1.206       .  T
C582        C583   1.413       .  S
C583        C584   1.206       .  T
C585        C586   1.206       .  T
C586        C587   1.412       .  S
C587        C588   1.206       .  T
C589        C590   1.205       .  T
C590        C591   1.411       .  S
C591        C592   1.205       .  T
C593        C594   1.205       .  T
C594        C595   1.411       .  S
C595        C596   1.205       .  T
C597        C598   1.206       .  T
C598        C599   1.413       .  S
C599        C600   1.206       .  T
C601        C602   1.206       .  T
C602        C603   1.412       .  S
C603        C604   1.206       .  T
C605        C606   1.205       .  T
C606        C607   1.411       .  S
C607        C608   1.205       .  T
C609        C610   1.206       .  T
C611        C612   1.206       .  T
C613        C614   1.206       .  T
C614        C615   1.412       .  S
C615        C616   1.206       .  T
C617        C618   1.206       .  T
C618        C619   1.413       .  S
C619        C620   1.206       .  T
C621        C622   1.205       .  T
C622        C623   1.411       .  S
C623        C624   1.205       .  T
