geometry optimzed in LAMMPS
_audit_creation_date              2020-11-30 
_audit_creation_method            'lammps2cif' 
_symmetry_space_group_name_H-M    'P1' 
_symmetry_Int_Tables_number       1 
_symmetry_cell_setting            triclinic 
loop_ 
_symmetry_equiv_pos_as_xyz 
  x,y,z 
_cell_length_a                    28.28585224 
_cell_length_b                    30.219531642023764 
_cell_length_c                    25.96529977235521 
_cell_angle_alpha                 90.39127780801803 
_cell_angle_beta                  89.49660790671356 
_cell_angle_gamma                 89.99125459839084 
loop_ 
_atom_site_label 
_atom_site_type_symbol 
_atom_site_fract_x 
_atom_site_fract_y 
_atom_site_fract_z 
_atom_site_charge 
O1          O  0.57438046  0.45503117  0.05769990    -0.80600
O2          O  0.52175471  0.52869111  0.37328099    -0.80700
O3          O  0.51685414  0.40807267  0.44951753    -0.80700
O4          O  0.52444324  0.59524725  0.04016538    -0.80600
O5          O  0.56086965  0.46715797  0.43683552    -0.80700
O6          O  0.57348814  0.54171085  0.04739582    -0.80600
O7          O  0.54386666  0.56482785  0.44335166    -0.80600
O8          O  0.52208081  0.40263563  0.05741072    -0.80700
C9          C  0.56279724  0.41659075  0.06944250     1.09100
C10         C  0.54673836  0.55825486  0.39401956     1.08900
C11         C  0.55379392  0.42605750  0.43041089     1.09100
C12         C  0.56382297  0.58157752  0.05554230     1.09000
O13         O  0.48620479  0.54690077  0.10949109    -0.80600
O14         O  0.46797953  0.46099762  0.39906322    -0.80700
O15         O  0.43036687  0.44344715  0.06660632    -0.80600
O16         O  0.46336176  0.60874298  0.46724422    -0.80600
O17         O  0.44398202  0.54475199  0.43094587    -0.80700
O18         O  0.48754734  0.45718056  0.12154600    -0.80600
O19         O  0.43452995  0.55853934  0.04730697    -0.80600
O20         O  0.42220245  0.44818450  0.46367728    -0.80700
Co21       Co  0.52974122  0.49999273  0.08035038     1.51500
Co22       Co  0.50481135  0.50600310  0.43826703     1.51700
Co23       Co  0.47346915  0.42827779  0.50786850     1.51600
Co24       Co  0.48518641  0.55680416  0.99403740     1.51500
O25         O  0.49637911  0.49276843  0.01272334    -1.42600
C26         C  0.44720889  0.56301511  0.09407386     1.09000
C27         C  0.43055326  0.44419562  0.41660686     1.09100
C28         C  0.44661275  0.44140384  0.11136028     1.09000
C29         C  0.43962429  0.58726607  0.43431495     1.09000
C30         C  0.59293028  0.89588513  0.11400372     0.42000
N31         N  0.58228409  0.95163002  0.06402827     0.00900
C32         C  0.38615373  0.08960089  0.05846087    -0.07000
H33         H  0.34898487  0.92296334  0.03364803     0.06400
C34         C  0.44662085  0.92720168  0.36746652    -0.07400
Co35       Co  0.49713421  0.00534274  0.09493999     0.74200
N36         N  0.41125738  0.96092776  0.05120543    -0.26500
Co37       Co  0.41751030  0.00886147  0.99363134     0.74100
C38         C  0.39983924  0.91097756  0.38296702     0.42100
N39         N  0.56368321  0.95299895  0.41155748     0.00500
N40         N  0.42198416  0.96101021  0.43624003     0.00600
N41         N  0.43672366  0.08638570  0.12564299    -0.47400
H42         H  0.52763388  0.91497570  0.16341757     0.06300
N43         N  0.44128756  0.96012149  0.08977728     0.00900
N44         N  0.42876248  0.05735271  0.43703017     0.00600
C45         C  0.41559408  0.11097466  0.38440547     0.42200
N46         N  0.59455279  0.95235172  0.44949720    -0.26000
C47         C  0.56333720  0.08211031  0.13380112    -0.06900
N48         N  0.61092499  0.91775791  0.07293124    -0.47100
N49         N  0.39902226  0.09003531  0.42686570    -0.47300
C50         C  0.60983187  0.09917287  0.11883716     0.42000
N51         N  0.44692063  0.05600148  0.09011930     0.00900
N52         N  0.59939092  0.04849670  0.45095330    -0.26000
N53         N  0.54685051  0.95397722  0.09738602    -0.26500
N54         N  0.56941984  0.04939987  0.41229764     0.00500
H55         H  0.65980142  0.08802986  0.47064222     0.06400
H56         H  0.48049002  0.09052856  0.33453068     0.06400
N57         N  0.41729466  0.05686539  0.05105985    -0.26600
N58         N  0.45722196  0.95854500  0.40260870    -0.26200
N59         N  0.58910333  0.04842724  0.06529701     0.00900
C60         C  0.39035409  0.90928789  0.10855201     0.42300
C61         C  0.62567370  0.91958240  0.44057480    -0.07400
N62         N  0.46384466  0.05477898  0.40336262    -0.26200
H63         H  0.46781897  0.91841387  0.33406828     0.06400
N64         N  0.43007334  0.93003543  0.12451971    -0.47400
H65         H  0.65583938  0.91170267  0.46411742     0.06400
C66         C  0.61847597  0.10244407  0.39584066     0.42100
C67         C  0.55076668  0.92047360  0.13072958    -0.06900
Co68       Co  0.59032356  0.00008895  0.00713179     0.73800
N69         N  0.57191004  0.92183181  0.37646456    -0.47100
C70         C  0.39903825  0.10882692  0.10767908     0.42400
N71         N  0.62332881  0.07709513  0.07578573    -0.47100
Co72       Co  0.51375680  0.00372911  0.40653972     0.73900
C73         C  0.45841103  0.08679465  0.36834132    -0.07400
C74         C  0.37815172  0.92960752  0.05909652    -0.07000
N75         N  0.55360118  0.05054095  0.09867404    -0.26500
N76         N  0.38717220  0.93305017  0.42609875    -0.47300
H77         H  0.35639187  0.09696583  0.03409432     0.06400
C78         C  0.63141351  0.08093821  0.44436133    -0.07400
Cl79       Cl  0.50381831  0.00450191  0.00035045    -0.50400
C80         C  0.61055520  0.89970099  0.39218966     0.42100
H81         H  0.54155746  0.09074879  0.16680756     0.06300
N82         N  0.57952231  0.08095036  0.37888746    -0.47100
C83         C  0.90319076  0.41071953  0.12795230     0.42000
N84         N  0.95435015  0.43088996  0.07189571     0.00900
C85         C  0.08752195  0.62386447  0.05973335    -0.07000
H86         H  0.91111076  0.64809162  0.03649530     0.06400
C87         C  0.91175570  0.55407119  0.37661581    -0.07400
Co88       Co  0.00531468  0.51433192  0.09928380     0.74200
N89         N  0.95343640  0.59104364  0.05478530    -0.26500
Co90       Co  0.00367094  0.58826941  0.99633028     0.74100
C91         C  0.88929579  0.59609798  0.39233674     0.42100
N92         N  0.94961160  0.44951080  0.41880611     0.00500
N93         N  0.94875153  0.58257321  0.44103311     0.00600
N94         N  0.08865296  0.57520321  0.12574125    -0.47400
H95         H  0.91630609  0.47300769  0.17791941     0.06300
N96         N  0.95344985  0.56339485  0.09407664     0.00900
N97         N  0.05183386  0.58382158  0.43791963     0.00600
C98         C  0.10610141  0.60025782  0.38264112     0.42200
N99         N  0.95041086  0.42267371  0.45858484    -0.26000
C100        C  0.09194241  0.45815414  0.13494254    -0.06900
N101        N  0.92428436  0.39896087  0.08346101    -0.47100
N102        N  0.08359264  0.61441973  0.42581818    -0.47300
C103        C  0.11323795  0.41602809  0.11886763     0.42000
N104        N  0.05627483  0.56427305  0.09137631     0.00900
N105        N  0.05242942  0.42323217  0.45521768    -0.26000
N106        N  0.95463308  0.46346108  0.10602244    -0.26500
N107        N  0.05292759  0.45091088  0.41608934     0.00500
H108        H  0.09178561  0.36404670  0.47227643     0.06400
H109        H  0.08988951  0.53735991  0.33462919     0.06400
N110        N  0.05507912  0.59220412  0.05245389    -0.26600
N111        N  0.94807616  0.54869879  0.40879664    -0.26200
N112        N  0.05653771  0.43196034  0.06787422     0.00900
C113        C  0.89702577  0.60835313  0.10995647     0.42300
C114        C  0.91603210  0.39248721  0.45359034    -0.07400
N115        N  0.05126026  0.55041564  0.40488706    -0.26200
H116        H  0.90336753  0.53178509  0.34528010     0.06400
N117        N  0.92027301  0.57302856  0.12870932    -0.47400
H118        H  0.90904661  0.36648017  0.48085516     0.06400
C119        C  0.10720556  0.40360232  0.39893695     0.42100
C120        C  0.92292880  0.45370454  0.14337876    -0.06900
Co121      Co  0.00347645  0.42712650  0.01297080     0.73800
N122        N  0.91644350  0.43842990  0.38539957    -0.47100
C123        C  0.10935725  0.61255038  0.10833486     0.42400
N124        N  0.08885105  0.40152678  0.07763073    -0.47100
Co125      Co  0.00052760  0.49977708  0.41094792     0.73900
C126        C  0.08407153  0.55793799  0.36830068    -0.07400
C127        C  0.91877997  0.62059137  0.06147985    -0.07000
N128        N  0.05723773  0.46521514  0.10108302    -0.26500
N129        N  0.91479636  0.61173336  0.43221491    -0.47300
H130        H  0.09326082  0.65230127  0.03540007     0.06400
C131        C  0.08531441  0.39206557  0.44762194    -0.07400
Cl132      Cl  0.00344570  0.50761671  0.00482579    -0.50400
C133        C  0.89380201  0.40234186  0.40427916     0.42100
H134        H  0.09918885  0.47854814  0.16833187     0.06300
N135        N  0.08538743  0.44017439  0.38100409    -0.50500
C136        C  0.29539307  0.29901400  0.20765241     0.45000
H137        H  0.29495093  0.30694785  0.16674194    -0.04100
C138        C  0.29112339  0.28791330  0.30641905     0.45000
H139        H  0.28907043  0.28320587  0.34878638    -0.04100
C140        C  0.32861666  0.32997864  0.23815437    -0.17700
C141        C  0.24644143  0.30794709  0.23029839    -0.17500
C142        C  0.30908717  0.25125150  0.22328077    -0.17900
C143        C  0.32696407  0.32324238  0.29033651    -0.17900
C144        C  0.24388777  0.30244537  0.28244207    -0.17400
C145        C  0.30798343  0.24648343  0.27671185    -0.17700
C146        C  0.70710307  0.29729837  0.20235744     0.45000
H147        H  0.70839435  0.29731865  0.15990249    -0.04100
C148        C  0.70465030  0.29658087  0.30199489     0.45000
H149        H  0.70412256  0.29584240  0.34478219    -0.04100
C150        C  0.67081538  0.33056512  0.22641123    -0.17700
C151        C  0.69248812  0.25172116  0.22366292    -0.17500
C152        C  0.75536285  0.30940535  0.22654632    -0.17900
C153        C  0.66959983  0.33008262  0.27960983    -0.17900
C154        C  0.69139767  0.25159837  0.27696286    -0.17400
C155        C  0.75278900  0.31124353  0.27970739    -0.17700
C156        C  0.29728558  0.71495601  0.30276017     0.45000
H157        H  0.29201053  0.71330113  0.34497004    -0.04100
C158        C  0.30515300  0.71641761  0.20322110     0.45000
H159        H  0.30584326  0.71703931  0.16065578    -0.04100
C160        C  0.33628817  0.68381258  0.28132584    -0.17700
C161        C  0.25221084  0.70038034  0.27501009    -0.17500
C162        C  0.31108786  0.76124394  0.28252328    -0.17900
C163        C  0.34132823  0.68467060  0.22793466    -0.17900
C164        C  0.25666173  0.70033288  0.22258950    -0.17400
C165        C  0.31492727  0.76185062  0.22915120    -0.17700
C166        C  0.70216583  0.71160762  0.19718957     0.45000
H167        H  0.70452462  0.71595880  0.15479894    -0.04100
C168        C  0.69708581  0.70307274  0.29634512     0.45000
H169        H  0.69497593  0.70045865  0.33893566    -0.04100
C170        C  0.66690505  0.67537402  0.21419929    -0.17700
C171        C  0.74932226  0.69769819  0.22141350    -0.17500
C172        C  0.68621013  0.75393046  0.22488424    -0.17900
C173        C  0.66325077  0.67167659  0.26729456    -0.17900
C174        C  0.74624342  0.69103452  0.27396051    -0.17400
C175        C  0.68404648  0.74981225  0.27733112    -0.17700
C176        C  0.14668515  0.63679501  0.13554102    -0.06600
C177        C  0.18790951  0.61369399  0.14664806    -0.17700
C178        C  0.22521549  0.63409892  0.17242222     0.10600
C179        C  0.22115816  0.67890544  0.18837492    -0.06500
C180        C  0.17977309  0.70224718  0.17672913    -0.17800
C181        C  0.14248741  0.68169307  0.15047363     0.10600
S182        S  0.27676434  0.60130451  0.18483557    -0.32700
S183        S  0.08978450  0.71372098  0.13962861    -0.32700
H184        H  0.05797486  0.67827765  0.14516647     0.28600
H185        H  0.25569320  0.55953240  0.17809582     0.28600
H186        H  0.19100332  0.57943885  0.13445555     0.19200
H187        H  0.17593319  0.73626479  0.18958643     0.19200
C188        C  0.14364393  0.62575753  0.35497877    -0.06600
C189        C  0.14311917  0.67242508  0.35721916    -0.17700
C190        C  0.17726246  0.69791933  0.33092084     0.10600
C191        C  0.21343509  0.67647677  0.30248571    -0.06500
C192        C  0.21438681  0.63024935  0.30130279    -0.17800
C193        C  0.18035718  0.60489523  0.32663702     0.10600
S194        S  0.17289005  0.75735188  0.33538565    -0.32700
S195        S  0.18857052  0.54614629  0.32381861    -0.32700
H196        H  0.17898346  0.54068329  0.37665135     0.28600
H197        H  0.19675701  0.76683469  0.28907276     0.28600
H198        H  0.11547225  0.68923136  0.37886938     0.19200
H199        H  0.24315938  0.61347131  0.28189329     0.19200
C200        C  0.20775381  0.32618470  0.31349641    -0.06600
C201        C  0.21725188  0.37040184  0.32599858    -0.17700
C202        C  0.18637643  0.39523867  0.35643417     0.10600
C203        C  0.14247331  0.37725781  0.37058527    -0.06500
C204        C  0.13198528  0.33323851  0.35728942    -0.17800
C205        C  0.16432209  0.30727974  0.32908189     0.10600
S206        S  0.20681250  0.44803946  0.37935197    -0.32700
S207        S  0.14708174  0.25123520  0.31387604    -0.32700
H208        H  0.18711846  0.23847545  0.28527562     0.28600
H209        H  0.18173248  0.44763781  0.42633543     0.28600
H210        H  0.24960794  0.38556320  0.31264697     0.19200
H211        H  0.09825250  0.31915413  0.36859992     0.19200
C212        C  0.21172731  0.33441559  0.20081106    -0.06600
C213        C  0.21903544  0.38017513  0.19755717    -0.17700
C214        C  0.18792409  0.40764001  0.17086124     0.10600
C215        C  0.14804175  0.38885011  0.14690196    -0.06500
C216        C  0.14142586  0.34272425  0.14888354    -0.17800
C217        C  0.17306703  0.31531875  0.17505176     0.10600
S218        S  0.20125242  0.46593538  0.16527828    -0.32700
S219        S  0.16233667  0.25650922  0.17348190    -0.32700
H220        H  0.20929723  0.24301855  0.18086007     0.28600
H221        H  0.24569014  0.46483838  0.18906209     0.28600
H222        H  0.24946441  0.39428646  0.21593936     0.19200
H223        H  0.11133743  0.32785100  0.12988278     0.19200
C224        C  0.86600226  0.38372147  0.15240639    -0.06600
C225        C  0.87795804  0.35427183  0.19177371    -0.17700
C226        C  0.84450616  0.32426999  0.21161221     0.10600
C227        C  0.79689478  0.32617420  0.19483361    -0.06500
C228        C  0.78797788  0.35050435  0.14989023    -0.17800
C229        C  0.82122913  0.38002439  0.12966208     0.10600
S230        S  0.86612476  0.28106440  0.25278347    -0.32700
S231        S  0.80431193  0.41246300  0.07472744    -0.32700
H232        H  0.83009934  0.45048008  0.08844760     0.28600
H233        H  0.82707608  0.25280979  0.24630147     0.28600
H234        H  0.91401756  0.35326109  0.20547503     0.19200
H235        H  0.75458449  0.34820512  0.13078018     0.19200
C236        C  0.78678846  0.33593715  0.31337646    -0.06600
C237        C  0.80722916  0.31358704  0.35474107    -0.17700
C238        C  0.84282919  0.33320867  0.38457191     0.10600
C239        C  0.85617846  0.37790536  0.37568580    -0.06500
C240        C  0.83330761  0.40093982  0.33639315    -0.17800
C241        C  0.79937576  0.38075784  0.30511670     0.10600
S242        S  0.87209539  0.29743110  0.42919704    -0.32700
S243        S  0.77254325  0.41360182  0.25561992    -0.32700
H244        H  0.80166976  0.45113086  0.25994883     0.28600
H245        H  0.91759084  0.30900553  0.41151761     0.28600
H246        H  0.79772115  0.27935003  0.36150480     0.19200
H247        H  0.84233276  0.43525788  0.32985288     0.19200
C248        C  0.78115074  0.66479648  0.30520870    -0.06600
C249        C  0.79810373  0.68363431  0.35111995    -0.17700
C250        C  0.83147562  0.66168854  0.38184673     0.10600
C251        C  0.85025066  0.62017110  0.36572233    -0.06500
C252        C  0.83170625  0.60076019  0.32128274    -0.17800
C253        C  0.79704408  0.62135128  0.29208368     0.10600
S254        S  0.84722170  0.68812610  0.44155719    -0.32700
S255        S  0.77420001  0.58713907  0.24132223    -0.32700
H256        H  0.73573238  0.61397102  0.23169931     0.28600
H257        H  0.83995379  0.64959265  0.47070952     0.28600
H258        H  0.78517437  0.71585937  0.36323294     0.19200
H259        H  0.84362583  0.56835432  0.30899351     0.19200
C260        C  0.78902693  0.68180950  0.18811665    -0.06600
C261        C  0.77762898  0.65402117  0.14622222    -0.17700
C262        C  0.81216377  0.62886914  0.12104767     0.10600
C263        C  0.85945810  0.63263666  0.13657994    -0.06500
C264        C  0.87174066  0.66306552  0.17509140    -0.17800
C265        C  0.83716005  0.68839055  0.20040590     0.10600
S266        S  0.79329211  0.59087875  0.07135038    -0.32700
S267        S  0.85721273  0.72909041  0.24643223    -0.32700
H268        H  0.81548201  0.75412766  0.24826926     0.28600
H269        H  0.82758224  0.55827894  0.08069537     0.28600
H270        H  0.74111032  0.64848181  0.13588538     0.19200
H271        H  0.90859087  0.66749068  0.18502729     0.19200
C272        C  0.67242079  0.21439718  0.30906723    -0.06600
C273        C  0.70179207  0.19418431  0.34534765    -0.17700
C274        C  0.68626579  0.15746938  0.37448645     0.10600
C275        C  0.63939964  0.14138860  0.36837542    -0.06500
C276        C  0.61027076  0.16248202  0.33266852    -0.17800
C277        C  0.62598257  0.19818746  0.30332059     0.10600
S278        S  0.72787493  0.13058336  0.41624590    -0.32700
S279        S  0.58474622  0.22279602  0.25996089    -0.32700
H280        H  0.56262758  0.18269043  0.24649425     0.28600
H281        H  0.76741834  0.15680703  0.40393955     0.28600
H282        H  0.73749952  0.20648682  0.34958400     0.19200
H283        H  0.57431425  0.15117253  0.32763230     0.19200
C284        C  0.67705973  0.21283458  0.19001375    -0.06600
C285        C  0.69021565  0.16956502  0.20425538    -0.17700
C286        C  0.66954472  0.13172393  0.18185313     0.10600
C287        C  0.63593430  0.13666255  0.14233167    -0.06500
C288        C  0.62577131  0.17907440  0.12478936    -0.17800
C289        C  0.64550905  0.21701026  0.14766234     0.10600
S290        S  0.68723497  0.07861697  0.20680367    -0.32700
S291        S  0.62695202  0.26948623  0.12249708    -0.32700
H292        H  0.58861324  0.25455156  0.09296130     0.28600
H293        H  0.65574812  0.05147917  0.17966156     0.28600
H294        H  0.71560057  0.16508170  0.23475328     0.19200
H295        H  0.60105088  0.18239820  0.09343016     0.19200
C296        C  0.32521090  0.21447036  0.18634096    -0.06600
C297        C  0.32199285  0.17038908  0.20404189    -0.17700
C298        C  0.34682225  0.13561306  0.18059070     0.10600
C299        C  0.37269323  0.14362522  0.13525264    -0.06500
C300        C  0.36984185  0.18504966  0.11233999    -0.17800
C301        C  0.34565480  0.22039676  0.13604035     0.10600
S302        S  0.34405118  0.08201533  0.21067754    -0.32700
S303        S  0.33869187  0.26909751  0.09681946    -0.32700
H304        H  0.36395626  0.25525181  0.05270130     0.28600
H305        H  0.34775690  0.05696915  0.16501021     0.28600
H306        H  0.30047789  0.16261991  0.23733941     0.19200
H307        H  0.38694773  0.18947033  0.07525836     0.19200
C308        C  0.38952754  0.14706119  0.35724746    -0.06600
C309        C  0.34076796  0.15205793  0.36728163    -0.17700
C310        C  0.31358769  0.18427986  0.34216527     0.10600
C311        C  0.33509399  0.21201162  0.30541478    -0.06500
C312        C  0.38371256  0.20767754  0.29586987    -0.17800
C313        C  0.41130610  0.17642076  0.32186649     0.10600
S314        S  0.25105692  0.18837602  0.35537804    -0.32700
S315        S  0.47440388  0.17735559  0.31173737    -0.32700
H316        H  0.47571331  0.21112522  0.27475250     0.28600
H317        H  0.24752318  0.15078750  0.38681934     0.28600
H318        H  0.32367229  0.13027754  0.39460592     0.19200
H319        H  0.40001892  0.22920224  0.26780611     0.19200
C320        C  0.66381002  0.79112678  0.19633572    -0.06600
C321        C  0.61438212  0.79449947  0.19769973    -0.17700
C322        C  0.59034037  0.82604380  0.16863478     0.10600
C323        C  0.61612121  0.85771949  0.13991378    -0.06500
C324        C  0.66571096  0.85374021  0.13759732    -0.17800
C325        C  0.68965052  0.82066839  0.16497962     0.10600
S326        S  0.52696482  0.82095007  0.16635148    -0.32700
S327        S  0.75308124  0.81830074  0.15882121    -0.32700
H328        H  0.76113447  0.80136101  0.20810341     0.28600
H329        H  0.52337323  0.83325763  0.11436932     0.28600
H330        H  0.59408147  0.77121022  0.22020682     0.19200
H331        H  0.68615954  0.87710315  0.11511019     0.19200
C332        C  0.66705059  0.78649277  0.31165616    -0.06600
C333        C  0.69217045  0.82662431  0.31150602    -0.17700
C334        C  0.67494953  0.86415338  0.33761970     0.10600
C335        C  0.63158296  0.86162551  0.36477405    -0.06500
C336        C  0.60693841  0.82159869  0.36585114    -0.17800
C337        C  0.62421510  0.78397997  0.34003844     0.10600
S338        S  0.70931746  0.91431290  0.33353132    -0.32700
S339        S  0.59007144  0.73388186  0.34300373    -0.32700
H340        H  0.54926427  0.75190935  0.36631347     0.28600
H341        H  0.67121549  0.94394126  0.33828931     0.28600
H342        H  0.72492745  0.82902767  0.28978433     0.19200
H343        H  0.57393166  0.81993975  0.38722220     0.19200
C344        C  0.37227959  0.87430459  0.36039398    -0.06600
C345        C  0.37805057  0.83237566  0.38140550    -0.17700
C346        C  0.35491497  0.79516801  0.36106388     0.10600
C347        C  0.32538524  0.79975306  0.31703055    -0.06500
C348        C  0.31496538  0.84317918  0.30096100    -0.17800
C349        C  0.33897030  0.88014458  0.32088741     0.10600
S350        S  0.36690405  0.74316401  0.39178397    -0.32700
S351        S  0.32588453  0.93338479  0.29330122    -0.32700
H352        H  0.36788813  0.95498508  0.30701244     0.28600
H353        H  0.38590192  0.76003678  0.43779463     0.28600
H354        H  0.40225172  0.82865305  0.41319408     0.19200
H355        H  0.29004572  0.84821628  0.27013437     0.19200
C356        C  0.33403898  0.79985263  0.19809962    -0.06600
C357        C  0.30539029  0.81953040  0.16067700    -0.17700
C358        C  0.32122291  0.85612952  0.13176603     0.10600
C359        C  0.36805818  0.87215037  0.13801026    -0.06500
C360        C  0.39630652  0.85205630  0.17519108    -0.17800
C361        C  0.38007385  0.81698927  0.20522656     0.10600
S362        S  0.27864577  0.88236441  0.09106208    -0.32700
S363        S  0.42032383  0.79425676  0.25094747    -0.32700
H364        H  0.44956638  0.83168418  0.25584049     0.28600
H365        H  0.29089676  0.92541534  0.10707867     0.28600
H366        H  0.26970891  0.80736814  0.15538229     0.19200
H367        H  0.43209771  0.86362082  0.18068969     0.19200
C368        C  0.41103612  0.61111512  0.39688475    -0.06600
C369        C  0.43555334  0.63951707  0.36394632    -0.17700
C370        C  0.41262217  0.66128609  0.32434169     0.10600
C371        C  0.36352531  0.65636449  0.31806705    -0.06500
C372        C  0.33877683  0.62794251  0.35146359    -0.17800
C373        C  0.36206527  0.60478215  0.39038217     0.10600
S374        S  0.44738280  0.69726695  0.28551477    -0.32700
S375        S  0.32702665  0.56943159  0.43128433    -0.32700
H376        H  0.35730699  0.57022322  0.47388179     0.28600
H377        H  0.45470960  0.66425930  0.24821147     0.28600
H378        H  0.47321182  0.64449851  0.36884182     0.19200
H379        H  0.30097581  0.62428098  0.34786340     0.19200
C380        C  0.37324335  0.65514541  0.19514716    -0.06600
C381        C  0.38548912  0.61242861  0.21225158    -0.17700
C382        C  0.41292900  0.58348759  0.18197172     0.10600
C383        C  0.42055630  0.59296962  0.12944363    -0.06500
C384        C  0.40896277  0.63529026  0.11187353    -0.17800
C385        C  0.38945561  0.66748270  0.14519086     0.10600
S386        S  0.44035579  0.53656802  0.21220968    -0.32700
S387        S  0.39210736  0.72456418  0.12502136    -0.32700
H388        H  0.41796109  0.71792221  0.07909487     0.28600
H389        H  0.42251690  0.54398462  0.26229311     0.28600
H390        H  0.37358938  0.60081925  0.24916892     0.19200
H391        H  0.41890248  0.64422622  0.07293371     0.19200
C392        C  0.63238862  0.64091657  0.29727530    -0.06600
C393        C  0.65267581  0.61954695  0.33984923    -0.17700
C394        C  0.62604849  0.59211635  0.37207216     0.10600
C395        C  0.57802591  0.58489064  0.36121278    -0.06500
C396        C  0.55808659  0.60440486  0.31772838    -0.17800
C397        C  0.58394743  0.63335125  0.28678022     0.10600
S398        S  0.65573033  0.56632372  0.42519336    -0.32700
S399        S  0.55121770  0.66132187  0.23772484    -0.32700
H400        H  0.57749696  0.70041325  0.23961657     0.28600
H401        H  0.62987946  0.52668146  0.42309623     0.28600
H402        H  0.68990084  0.62381739  0.34795675     0.19200
H403        H  0.52111768  0.59871343  0.30918265     0.19200
C404        C  0.64109885  0.64944992  0.17392942    -0.06600
C405        C  0.61986185  0.67394348  0.13421375    -0.17700
C406        C  0.59446261  0.65328604  0.09459357     0.10600
C407        C  0.59228059  0.60680500  0.09287547    -0.06500
C408        C  0.61411035  0.58232724  0.13161136    -0.17800
C409        C  0.63702576  0.60259232  0.17274885     0.10600
S410        S  0.56599148  0.68652854  0.04634137    -0.32700
S411        S  0.65936688  0.56633863  0.22175565    -0.32700
H412        H  0.63090375  0.52937217  0.21061519     0.28600
H413        H  0.57104496  0.72744156  0.07193204     0.28600
H414        H  0.62193448  0.70969687  0.13514535     0.19200
H415        H  0.61171707  0.54656585  0.13073878     0.19200
C416        C  0.58486924  0.40076191  0.39402721    -0.06600
C417        C  0.60792622  0.42437513  0.35474172    -0.17700
C418        C  0.63413106  0.40305023  0.31568332     0.10600
C419        C  0.63806788  0.35627171  0.31548229    -0.06500
C420        C  0.61457276  0.33267519  0.35466208    -0.17800
C421        C  0.58840593  0.35405927  0.39359781     0.10600
S422        S  0.66135449  0.43718703  0.26733763    -0.32700
S423        S  0.56176399  0.31962998  0.44220157    -0.32700
H424        H  0.57431060  0.34780670  0.48315615     0.28600
H425        H  0.65827047  0.47766876  0.29425950     0.28600
H426        H  0.60421220  0.46001459  0.35364260     0.19200
H427        H  0.61700802  0.29688879  0.35529396     0.19200
C428        C  0.59144675  0.39318195  0.10772395    -0.06600
C429        C  0.56741336  0.37123294  0.14748611    -0.17700
C430        C  0.59147309  0.35350673  0.18935989     0.10600
C431        C  0.64099350  0.35798975  0.19211853    -0.06500
C432        C  0.66422353  0.38362392  0.15493395    -0.17800
C433        C  0.64062413  0.39991145  0.11206507     0.10600
S434        S  0.55779170  0.32527570  0.23775029    -0.32700
S435        S  0.67544290  0.42828388  0.06406701    -0.32700
H436        H  0.64870271  0.41320699  0.02197998     0.28600
H437        H  0.51859148  0.31581962  0.20653838     0.28600
H438        H  0.52933097  0.36925841  0.14688468     0.19200
H439        H  0.70113287  0.39111091  0.15948519     0.19200
C440        C  0.40289821  0.41305969  0.38558212    -0.06600
C441        C  0.42756137  0.38693746  0.34944161    -0.17700
C442        C  0.40469620  0.35339196  0.32224096     0.10600
C443        C  0.35560365  0.34802892  0.32825680    -0.06500
C444        C  0.33240251  0.37006005  0.36880386    -0.17800
C445        C  0.35505485  0.40328679  0.39668277     0.10600
S446        S  0.43932733  0.31472760  0.28489378    -0.32700
S447        S  0.32033789  0.43285276  0.44419180    -0.32700
H448        H  0.34090584  0.47408573  0.43344503     0.28600
H449        H  0.48109706  0.32103787  0.31303157     0.28600
H450        H  0.46525243  0.39155092  0.34385507     0.19200
H451        H  0.29591148  0.36286345  0.37762698     0.19200
C452        C  0.36130038  0.36074934  0.21100900    -0.06600
C453        C  0.39209530  0.34149584  0.17511182    -0.17700
C454        C  0.42023961  0.36704594  0.14261656     0.10600
C455        C  0.42046499  0.41357612  0.14839897    -0.06500
C456        C  0.39014964  0.43312072  0.18489943    -0.17800
C457        C  0.36109544  0.40735855  0.21703847     0.10600
S458        S  0.45115009  0.33935817  0.09053069    -0.32700
S459        S  0.32325003  0.43504213  0.26331772    -0.32700
H460        H  0.34360106  0.47734294  0.25884951     0.28600
H461        H  0.44764876  0.29610357  0.10989399     0.28600
H462        H  0.39345537  0.30584275  0.17216564     0.19200
H463        H  0.38678080  0.46854311  0.18591514     0.19200
O464        O  0.57474009  0.45192868  0.55653144    -0.80600
O465        O  0.52228658  0.52710193  0.87224128    -0.80700
O466        O  0.51685185  0.40761426  0.95238762    -0.80700
O467        O  0.52666440  0.59319095  0.54315340    -0.80600
O468        O  0.56036939  0.46676019  0.93814500    -0.80700
O469        O  0.57556304  0.53936622  0.55080525    -0.80600
O470        O  0.54226240  0.56494163  0.94188663    -0.80600
O471        O  0.52190416  0.39984550  0.55383017    -0.80700
C472        C  0.56270839  0.41315604  0.56644823     1.09100
C473        C  0.54651736  0.55734702  0.89287736     1.08900
C474        C  0.55334591  0.42560489  0.93229496     1.09100
C475        C  0.56594186  0.57933507  0.55874157     1.09000
O476        O  0.48749639  0.54356521  0.61159484    -0.80600
O477        O  0.46769674  0.45911051  0.89952323    -0.80700
O478        O  0.43094149  0.44137855  0.56510631    -0.80600
O479        O  0.46132734  0.60868158  0.96399056    -0.80600
O480        O  0.44339238  0.54389117  0.92836846    -0.80700
O481        O  0.48830728  0.45318422  0.62032453    -0.80600
O482        O  0.43657792  0.55657820  0.54895129    -0.80600
O483        O  0.42163475  0.44590294  0.96416080    -0.80700
Co484      Co  0.53082924  0.49690126  0.58110968     1.51500
Co485      Co  0.50420180  0.50540126  0.93763586     1.51700
Co486      Co  0.47320392  0.42885995  0.00992869     1.51600
Co487      Co  0.48715226  0.55600759  0.49583013     1.51500
O488        O  0.49785223  0.49163931  0.51299075    -1.42600
C489        C  0.44890124  0.56038959  0.59586464     1.09000
C490        C  0.43043425  0.44178874  0.91706490     1.09100
C491        C  0.44737528  0.43780315  0.60958426     1.09000
C492        C  0.43838790  0.58640254  0.93111206     1.09000
C493        C  0.59664787  0.89698027  0.61607125     0.42000
N494        N  0.58557717  0.95172290  0.56494983     0.00900
C495        C  0.38867813  0.08890099  0.55915812    -0.07000
H496        H  0.35331225  0.92222285  0.53196005     0.06400
C497        C  0.44254240  0.92809281  0.86618016    -0.07400
Co498      Co  0.50001490  0.00505610  0.59561335     0.74200
N499        N  0.41470929  0.96074324  0.55099082    -0.26500
Co500      Co  0.42088691  0.00898593  0.49390847     0.74100
C501        C  0.39591833  0.91174122  0.88176213     0.42100
N502        N  0.55990884  0.95274866  0.91089864     0.00500
N503        N  0.41854730  0.96080707  0.93596950     0.00600
N504        N  0.43854661  0.08545567  0.62693771    -0.47400
H505        H  0.53102326  0.91587396  0.66486639     0.06300
N506        N  0.44451570  0.95971566  0.58974374     0.00900
N507        N  0.42520337  0.05695566  0.93657985     0.00600
C508        C  0.41160465  0.11026099  0.88395490     0.42200
N509        N  0.59051912  0.95206833  0.94908457    -0.26000
C510        C  0.56617236  0.08095707  0.63569695    -0.06900
N511        N  0.61468714  0.91838661  0.57469883    -0.47100
N512        N  0.39518813  0.08938200  0.92644587    -0.47300
C513        C  0.61266098  0.09800713  0.62098988     0.42000
N514        N  0.44956434  0.05562839  0.59100427     0.00900
N515        N  0.59605902  0.04821286  0.94978710    -0.26000
N516        N  0.54994962  0.95405980  0.59810275    -0.26500
N517        N  0.56607142  0.04926329  0.91113921     0.00500
H518        H  0.65672179  0.08737687  0.96944662     0.06400
H519        H  0.47636226  0.09026057  0.83375033     0.06400
N520        N  0.42031502  0.05664701  0.55162059    -0.26600
N521        N  0.45351622  0.95874026  0.90195337    -0.26200
N522        N  0.59182706  0.04823455  0.56646374     0.00900
C523        C  0.39418559  0.90810912  0.60707244     0.42300
C524        C  0.62100405  0.91870069  0.94114354    -0.07400
N525        N  0.46024202  0.05455072  0.90281812    -0.26200
H526        H  0.46344655  0.91984418  0.83238131     0.06400
N527        N  0.43352645  0.92900727  0.62381219    -0.47400
H528        H  0.65083021  0.91065469  0.96511377     0.06400
C529        C  0.61562220  0.10194051  0.89460624     0.42100
C530        C  0.55410901  0.92113465  0.63207249    -0.06900
Co531      Co  0.59367930  0.00017427  0.50804035     0.73800
N532        N  0.56790619  0.92107173  0.87633280    -0.47100
C533        C  0.40069682  0.10765129  0.60885414     0.42400
N534        N  0.62606028  0.07668026  0.57743933    -0.47100
Co535      Co  0.51015380  0.00366677  0.90573350     0.73900
C536        C  0.45450486  0.08641527  0.86773271    -0.07400
C537        C  0.38203271  0.92895326  0.55795618    -0.07000
N538        N  0.55632067  0.05005205  0.59987406    -0.26500
N539        N  0.38363590  0.93303425  0.92557575    -0.47300
H540        H  0.35894502  0.09604505  0.53465887     0.06400
C541        C  0.62831422  0.08041054  0.94314398    -0.07400
Cl542      Cl  0.50709407  0.00449057  0.50101664    -0.50400
C543        C  0.60586503  0.89844932  0.89311514     0.42100
H544        H  0.54446544  0.08912062  0.66892203     0.06300
N545        N  0.57643770  0.08074644  0.87765001    -0.47100
C546        C  0.90021048  0.41243105  0.62700262     0.42000
N547        N  0.95299986  0.43131419  0.57217429     0.00900
C548        C  0.08292043  0.62609709  0.56134190    -0.07000
H549        H  0.90997925  0.64867114  0.53656962     0.06400
C550        C  0.91362051  0.55598208  0.87662179    -0.07400
Co551      Co  0.00339489  0.51501538  0.59985368     0.74200
N552        N  0.95100401  0.59080639  0.55462179    -0.26500
Co553      Co  0.00112662  0.58812162  0.49650717     0.74100
C554        C  0.89210107  0.59838273  0.89232919     0.42100
N555        N  0.94933102  0.45077345  0.91864684     0.00500
N556        N  0.95104386  0.58374858  0.94114495     0.00600
N557        N  0.08389828  0.57823184  0.62818703    -0.47400
H558        H  0.91320958  0.47480811  0.67674507     0.06300
N559        N  0.95130543  0.56364174  0.59433406     0.00900
N560        N  0.05431913  0.58330163  0.93739790     0.00600
C561        C  0.10879142  0.59868721  0.88149856     0.42200
N562        N  0.95030479  0.42377005  0.95827456    -0.26000
C563        C  0.09113840  0.45957273  0.63531032    -0.06900
N564        N  0.92210886  0.39992571  0.58320705    -0.47100
N565        N  0.08700495  0.61303151  0.92518003    -0.47300
C566        C  0.11305700  0.41777046  0.61871941     0.42000
N567        N  0.05337114  0.56564769  0.59255093     0.00900
N568        N  0.05271620  0.42338935  0.95398424    -0.26000
N569        N  0.95303507  0.46405858  0.60608134    -0.26500
N570        N  0.05291674  0.45115104  0.91495355     0.00500
H571        H  0.09308374  0.36481884  0.97104304     0.06400
H572        H  0.08910675  0.53669112  0.83310947     0.06400
N573        N  0.05212164  0.59319000  0.55322273    -0.26600
N574        N  0.94964676  0.54993757  0.90888353    -0.26200
N575        N  0.05543416  0.43299205  0.56870126     0.00900
C576        C  0.89648105  0.60994944  0.61082582     0.42300
C577        C  0.91475259  0.39470485  0.95422410    -0.07400
N578        N  0.05251040  0.55019014  0.90409841    -0.26200
H579        H  0.90502503  0.53390643  0.84516128     0.06400
N580        N  0.91919799  0.57438415  0.62968199    -0.47400
H581        H  0.90737317  0.36918792  0.98195724     0.06400
C582        C  0.10800855  0.40475140  0.89783652     0.42100
C583        C  0.92044673  0.45503558  0.64270740    -0.06900
Co584      Co  0.00276985  0.42718990  0.51377544     0.73800
N585        N  0.91492348  0.44076134  0.88620039    -0.47100
C586        C  0.10316793  0.61631916  0.61115738     0.42400
N587        N  0.08844487  0.40313121  0.57778830    -0.47100
Co588      Co  0.00106107  0.50036592  0.91044889     0.73900
C589        C  0.08495800  0.55719571  0.86705058    -0.07400
C590        C  0.91718223  0.62104536  0.56154708    -0.07000
N591        N  0.05589644  0.46624614  0.60191652    -0.26500
N592        N  0.91775043  0.61355391  0.93231787    -0.47300
H593        H  0.08786514  0.65476837  0.53718646     0.06400
C594        C  0.08609097  0.39270750  0.94635949    -0.07400
Cl595      Cl  0.00206465  0.50756125  0.50526627    -0.50400
C596        C  0.89152150  0.40526499  0.90561347     0.42100
H597        H  0.09851583  0.48010306  0.66854432     0.06300
N598        N  0.08563672  0.44100691  0.87995050    -0.50500
C599        C  0.29468964  0.29729226  0.70600395     0.45000
H600        H  0.29494787  0.30526851  0.66514761    -0.04100
C601        C  0.28932160  0.28693088  0.80481494     0.45000
H602        H  0.28667624  0.28245126  0.84719082    -0.04100
C603        C  0.32888057  0.32723769  0.73655531    -0.17700
C604        C  0.24599146  0.30799790  0.72820284    -0.17500
C605        C  0.30643591  0.24916047  0.72199388    -0.17900
C606        C  0.32652642  0.32116584  0.78889076    -0.17900
C607        C  0.24289594  0.30273361  0.78032886    -0.17400
C608        C  0.30471118  0.24482279  0.77545719    -0.17700
C609        C  0.70643260  0.29716066  0.70367830     0.45000
H610        H  0.70873484  0.29662433  0.66139996    -0.04100
C611        C  0.70242963  0.29756899  0.80315898     0.45000
H612        H  0.70138795  0.29726824  0.84594677    -0.04100
C613        C  0.66871397  0.32968451  0.72636631    -0.17700
C614        C  0.69268149  0.25153985  0.72534955    -0.17500
C615        C  0.75385382  0.31097188  0.72838406    -0.17900
C616        C  0.66670317  0.32979859  0.77961922    -0.17900
C617        C  0.69063671  0.25202189  0.77864540    -0.17400
C618        C  0.75042681  0.31340904  0.78146844    -0.17700
C619        C  0.29759903  0.71486820  0.79947337     0.45000
H620        H  0.29254725  0.71364656  0.84177895    -0.04100
C621        C  0.30573718  0.71587575  0.69985991     0.45000
H622        H  0.30729858  0.71674225  0.65729586    -0.04100
C623        C  0.33553299  0.68276996  0.77835856    -0.17700
C624        C  0.25240717  0.70096546  0.77171635    -0.17500
C625        C  0.31243231  0.76069296  0.77893696    -0.17900
C626        C  0.34074434  0.68325251  0.72516352    -0.17900
C627        C  0.25641916  0.70124813  0.71898888    -0.17400
C628        C  0.31669525  0.76098087  0.72572673    -0.17700
C629        C  0.70323217  0.71294170  0.69939151     0.45000
H630        H  0.70514757  0.71799346  0.65710274    -0.04100
C631        C  0.69879667  0.70345517  0.79843558     0.45000
H632        H  0.69719645  0.70039804  0.84098684    -0.04100
C633        C  0.66885835  0.67582319  0.71606942    -0.17700
C634        C  0.75077056  0.69992334  0.72304913    -0.17500
C635        C  0.68690268  0.75463576  0.72770538    -0.17900
C636        C  0.66547594  0.67165495  0.76918456    -0.17900
C637        C  0.74808352  0.69273195  0.77550875    -0.17400
C638        C  0.68467431  0.75012942  0.78009205    -0.17700
C639        C  0.14113512  0.64059185  0.63687677    -0.06600
C640        C  0.18725904  0.62777256  0.62537495    -0.17700
C641        C  0.22584645  0.64821397  0.64891088     0.10600
C642        C  0.21822475  0.68321072  0.68485895    -0.06500
C643        C  0.17146950  0.69756665  0.69393824    -0.17800
C644        C  0.13288114  0.67613028  0.67123679     0.10600
S645        S  0.28330666  0.62602817  0.63434848    -0.32700
S646        S  0.07436215  0.69520069  0.68854473    -0.32700
H647        H  0.05044636  0.65531561  0.67889060     0.28600
H648        H  0.27042888  0.59603388  0.59527362     0.28600
H649        H  0.19279747  0.60058458  0.59858812     0.19200
H650        H  0.16484227  0.72438028  0.72097898     0.19200
C651        C  0.14632426  0.62415035  0.85316566    -0.06600
C652        C  0.15128477  0.66981642  0.86355568    -0.17700
C653        C  0.18479961  0.69593073  0.83732473     0.10600
C654        C  0.21444991  0.67629526  0.79966178    -0.06500
C655        C  0.21019979  0.63088020  0.78980473    -0.17800
C656        C  0.17729094  0.60475720  0.81608232     0.10600
S657        S  0.18760833  0.75405957  0.85319178    -0.32700
S658        S  0.18048859  0.54651210  0.80310560    -0.32700
H659        H  0.17705569  0.53648954  0.85571492     0.28600
H660        H  0.20442885  0.76829294  0.80497455     0.28600
H661        H  0.12842818  0.68560087  0.89188747     0.19200
H662        H  0.23410277  0.61522044  0.76234644     0.19200
C663        C  0.20704089  0.32696926  0.81109209    -0.06600
C664        C  0.21652739  0.37142700  0.82229139    -0.17700
C665        C  0.18598979  0.39675257  0.85252737     0.10600
C666        C  0.14286090  0.37846056  0.86893938    -0.06500
C667        C  0.13256747  0.33407734  0.85724652    -0.17800
C668        C  0.16423506  0.30800282  0.82839141     0.10600
S669        S  0.20602382  0.45071190  0.87199661    -0.32700
S670        S  0.14701120  0.25169236  0.81466793    -0.32700
H671        H  0.18397130  0.24029381  0.78079946     0.28600
H672        H  0.18203770  0.45183710  0.91963266     0.28600
H673        H  0.24874841  0.38635490  0.80824499     0.19200
H674        H  0.09936669  0.31984498  0.87009842     0.19200
C675        C  0.21205406  0.33498127  0.69830123    -0.06600
C676        C  0.21889832  0.38089085  0.69684906    -0.17700
C677        C  0.18740819  0.40891700  0.67147740     0.10600
C678        C  0.14819377  0.39039582  0.64600691    -0.06500
C679        C  0.14240873  0.34410853  0.64568550    -0.17800
C680        C  0.17397362  0.31626964  0.67125536     0.10600
S681        S  0.19957060  0.46760908  0.66951104    -0.32700
S682        S  0.16354989  0.25745712  0.66780130    -0.32700
H683        H  0.21045105  0.24397915  0.67549510     0.28600
H684        H  0.23649575  0.46776080  0.70542373     0.28600
H685        H  0.24919928  0.39472077  0.71570407     0.19200
H686        H  0.11279095  0.32941774  0.62564893     0.19200
C687        C  0.86338774  0.38553235  0.65206701    -0.06600
C688        C  0.87547990  0.35825088  0.69338671    -0.17700
C689        C  0.84267234  0.32818785  0.71422373     0.10600
C690        C  0.79525409  0.32823999  0.69672482    -0.06500
C691        C  0.78638742  0.35047186  0.65023971    -0.17800
C692        C  0.81912646  0.37981180  0.62878210     0.10600
S693        S  0.86528572  0.28677508  0.75713850    -0.32700
S694        S  0.80230089  0.40926668  0.57154722    -0.32700
H695        H  0.82704718  0.44837130  0.58326921     0.28600
H696        H  0.82739102  0.25712746  0.75095695     0.28600
H697        H  0.91135142  0.35872225  0.70771318     0.19200
H698        H  0.75359387  0.34638787  0.63032014     0.19200
C699        C  0.78349750  0.33888723  0.81555118    -0.06600
C700        C  0.80328806  0.31711525  0.85764333    -0.17700
C701        C  0.83876465  0.33689280  0.88747045     0.10600
C702        C  0.85301653  0.38123522  0.87762909    -0.06500
C703        C  0.83033856  0.40399500  0.83787354    -0.17800
C704        C  0.79620322  0.38362046  0.80680918     0.10600
S705        S  0.86662133  0.30146999  0.93347128    -0.32700
S706        S  0.76903714  0.41605389  0.75711828    -0.32700
H707        H  0.80071718  0.45191247  0.75831013     0.28600
H708        H  0.91240177  0.31037951  0.91456088     0.28600
H709        H  0.79347838  0.28303466  0.86496315     0.19200
H710        H  0.83968698  0.43815767  0.83076591     0.19200
C711        C  0.78357962  0.66692250  0.80612256    -0.06600
C712        C  0.80134682  0.68625350  0.85137347    -0.17700
C713        C  0.83544864  0.66473699  0.88148317     0.10600
C714        C  0.85333698  0.62276735  0.86585477    -0.06500
C715        C  0.83415986  0.60304547  0.82193890    -0.17800
C716        C  0.79953040  0.62358250  0.79280632     0.10600
S717        S  0.85374899  0.69257292  0.93941369    -0.32700
S718        S  0.77770631  0.58975113  0.74112306    -0.32700
H719        H  0.73914000  0.61623722  0.73088164     0.28600
H720        H  0.84480802  0.65549166  0.97052914     0.28600
H721        H  0.78874395  0.71866460  0.86321735     0.19200
H722        H  0.84577041  0.57052966  0.80975121     0.19200
C723        C  0.79036164  0.68493104  0.68912788    -0.06600
C724        C  0.77872254  0.65869676  0.64600901    -0.17700
C725        C  0.81279533  0.63363837  0.62026361     0.10600
C726        C  0.85971744  0.63502864  0.63738224    -0.06500
C727        C  0.87253652  0.66417543  0.67703598    -0.17800
C728        C  0.83848355  0.69032396  0.70202649     0.10600
S729        S  0.79361878  0.59888291  0.56758754    -0.32700
S730        S  0.85887949  0.73087941  0.74800465    -0.32700
H731        H  0.81819438  0.75756866  0.74669889     0.28600
H732        H  0.82625151  0.56455242  0.57549006     0.28600
H733        H  0.74228799  0.65414679  0.63484125     0.19200
H734        H  0.90935142  0.66725292  0.68774516     0.19200
C735        C  0.67073272  0.21517674  0.81076874    -0.06600
C736        C  0.69982236  0.19391480  0.84647308    -0.17700
C737        C  0.68396170  0.15654159  0.87423067     0.10600
C738        C  0.63690255  0.14105978  0.86773239    -0.06500
C739        C  0.60802003  0.16314967  0.83262240    -0.17800
C740        C  0.62420879  0.19929937  0.80421652     0.10600
S741        S  0.72570693  0.12751716  0.91385175    -0.32700
S742        S  0.58398435  0.22432343  0.76001299    -0.32700
H743        H  0.55941340  0.18510849  0.74824231     0.28600
H744        H  0.76349171  0.15741955  0.90836075     0.28600
H745        H  0.73578125  0.20554261  0.85076138     0.19200
H746        H  0.57202172  0.15211078  0.82716977     0.19200
C747        C  0.67819596  0.21214550  0.69195861    -0.06600
C748        C  0.68917750  0.16904414  0.70891628    -0.17700
C749        C  0.66837182  0.13116851  0.68707498     0.10600
C750        C  0.63844009  0.13554814  0.64430314    -0.06500
C751        C  0.63112556  0.17738382  0.62370920    -0.17800
C752        C  0.64971423  0.21567472  0.64686114     0.10600
S753        S  0.67931949  0.07873999  0.71761684    -0.32700
S754        S  0.63221852  0.26760050  0.61910516    -0.32700
H755        H  0.60729365  0.25135976  0.57634458     0.28600
H756        H  0.67016772  0.05172580  0.67461862     0.28600
H757        H  0.71266716  0.16472618  0.74115238     0.19200
H758        H  0.60848531  0.18004052  0.59045732     0.19200
C759        C  0.32290678  0.21201535  0.68556710    -0.06600
C760        C  0.32080711  0.16801598  0.70382311    -0.17700
C761        C  0.34710533  0.13367142  0.68126550     0.10600
C762        C  0.37343013  0.14199863  0.63624783    -0.06500
C763        C  0.36910500  0.18299733  0.61256501    -0.17800
C764        C  0.34296548  0.21760801  0.63510973     0.10600
S765        S  0.34545618  0.08031544  0.71206736    -0.32700
S766        S  0.33316372  0.26453810  0.59393425    -0.32700
H767        H  0.34247897  0.24343350  0.54642700     0.28600
H768        H  0.35198486  0.05479408  0.66712796     0.28600
H769        H  0.29903393  0.15998593  0.73680990     0.19200
H770        H  0.38645721  0.18785226  0.57565165     0.19200
C771        C  0.38548985  0.14606944  0.85683361    -0.06600
C772        C  0.33642594  0.15005692  0.86550139    -0.17700
C773        C  0.30939905  0.18225504  0.84024765     0.10600
C774        C  0.33142147  0.21053169  0.80447949    -0.06500
C775        C  0.38026153  0.20702849  0.79620313    -0.17800
C776        C  0.40771860  0.17615247  0.82274362     0.10600
S777        S  0.24651841  0.18545571  0.85159889    -0.32700
S778        S  0.47111150  0.17859513  0.81534599    -0.32700
H779        H  0.47287733  0.21246527  0.77851942     0.28600
H780        H  0.24402906  0.15253207  0.88954951     0.28600
H781        H  0.31904233  0.12748314  0.89171798     0.19200
H782        H  0.39682270  0.22888882  0.76870547     0.19200
C783        C  0.66515637  0.79198034  0.69926822    -0.06600
C784        C  0.61581643  0.79457320  0.69800839    -0.17700
C785        C  0.59278224  0.82653746  0.66883939     0.10600
C786        C  0.61944165  0.85912304  0.64258952    -0.06500
C787        C  0.66915001  0.85634215  0.64351102    -0.17800
C788        C  0.69220606  0.82268792  0.67104558     0.10600
S789        S  0.52962560  0.82106674  0.66349130    -0.32700
S790        S  0.75593017  0.81969811  0.67144048    -0.32700
H791        H  0.76397600  0.85491163  0.63731863     0.28600
H792        H  0.52793978  0.83421482  0.61167030     0.28600
H793        H  0.59490570  0.77040179  0.71846237     0.19200
H794        H  0.68988582  0.88091693  0.62327622     0.19200
C795        C  0.66700533  0.78649537  0.81457008    -0.06600
C796        C  0.68827710  0.82839186  0.81029753    -0.17700
C797        C  0.66920860  0.86568388  0.83516194     0.10600
C798        C  0.62811090  0.86102400  0.86586360    -0.06500
C799        C  0.60781001  0.81922789  0.87189831    -0.17800
C800        C  0.62676566  0.78187652  0.84691488     0.10600
S801        S  0.69875420  0.91795656  0.82504588    -0.32700
S802        S  0.59766677  0.72948782  0.85573582    -0.32700
H803        H  0.56011118  0.74441874  0.88716351     0.28600
H804        H  0.66134160  0.94606927  0.83941925     0.28600
H805        H  0.71933683  0.83231044  0.78603763     0.19200
H806        H  0.57668747  0.81606528  0.89619095     0.19200
C807        C  0.36882888  0.87481165  0.85928650    -0.06600
C808        C  0.37580008  0.83284423  0.87968506    -0.17700
C809        C  0.35501770  0.79514552  0.85768696     0.10600
C810        C  0.32606268  0.79941745  0.81321393    -0.06500
C811        C  0.31501887  0.84264672  0.79692889    -0.17800
C812        C  0.33683904  0.88008371  0.81847118     0.10600
S813        S  0.37037104  0.74282615  0.88579203    -0.32700
S814        S  0.32442094  0.93311000  0.79008977    -0.32700
H815        H  0.33463768  0.95902698  0.83370644     0.28600
H816        H  0.38979017  0.75898495  0.93192313     0.28600
H817        H  0.39963701  0.82950241  0.91185309     0.19200
H818        H  0.29099097  0.84727806  0.76519063     0.19200
C819        C  0.33671161  0.79850323  0.69487593    -0.06600
C820        C  0.30874302  0.81816819  0.65693387    -0.17700
C821        C  0.32505096  0.85473866  0.62849107     0.10600
C822        C  0.37175011  0.87072035  0.63576988    -0.06500
C823        C  0.39950621  0.85044154  0.67330561    -0.17800
C824        C  0.38275234  0.81530355  0.70291043     0.10600
S825        S  0.28301906  0.88105561  0.58720851    -0.32700
S826        S  0.42224715  0.79186476  0.74912609    -0.32700
H827        H  0.45231939  0.82870757  0.75399564     0.28600
H828        H  0.29433900  0.92398669  0.60446144     0.28600
H829        H  0.27310591  0.80611408  0.65099786     0.19200
H830        H  0.43518734  0.86200740  0.67951128     0.19200
C831        C  0.40993046  0.60947071  0.89309836    -0.06600
C832        C  0.43481050  0.63594549  0.85838361    -0.17700
C833        C  0.41168997  0.65801191  0.81923169     0.10600
C834        C  0.36227716  0.65504282  0.81500492    -0.06500
C835        C  0.33712591  0.62821016  0.84981029    -0.17800
C836        C  0.36051210  0.60505188  0.88867881     0.10600
S837        S  0.44671008  0.69148243  0.77765592    -0.32700
S838        S  0.32525779  0.57216900  0.93211397    -0.32700
H839        H  0.35686910  0.57275838  0.97354001     0.28600
H840        H  0.45877336  0.65438181  0.74750953     0.28600
H841        H  0.47275350  0.63961170  0.86195330     0.19200
H842        H  0.29902546  0.62582343  0.84717053     0.19200
C843        C  0.37282012  0.65313361  0.69368925    -0.06600
C844        C  0.38152234  0.60953774  0.71031480    -0.17700
C845        C  0.41074546  0.58064770  0.68201371     0.10600
C846        C  0.42231163  0.59081151  0.63057438    -0.06500
C847        C  0.41351540  0.63375742  0.61316085    -0.17800
C848        C  0.39277017  0.66591401  0.64551857     0.10600
S849        S  0.43646167  0.53379096  0.71388549    -0.32700
S850        S  0.39636976  0.72301720  0.62586278    -0.32700
H851        H  0.42258101  0.71641969  0.58017195     0.28600
H852        H  0.41679041  0.54199388  0.76301030     0.28600
H853        H  0.36641153  0.59774439  0.74585600     0.19200
H854        H  0.42611889  0.64292337  0.57519909     0.19200
C855        C  0.63441053  0.64066608  0.79876957    -0.06600
C856        C  0.65356558  0.61973346  0.84222718    -0.17700
C857        C  0.62611166  0.59230040  0.87375396     0.10600
C858        C  0.57874341  0.58374996  0.86059031    -0.06500
C859        C  0.56007420  0.60294855  0.81622716    -0.17800
C860        C  0.58636108  0.63286978  0.78692873     0.10600
S861        S  0.65382058  0.56879201  0.92953205    -0.32700
S862        S  0.55464356  0.66310347  0.73907598    -0.32700
H863        H  0.57877714  0.70276001  0.74795301     0.28600
H864        H  0.62888657  0.52861807  0.92784561     0.28600
H865        H  0.69037979  0.62465153  0.85185465     0.19200
H866        H  0.52352795  0.59683030  0.80617818     0.19200
C867        C  0.64388751  0.64920653  0.67552338    -0.06600
C868        C  0.62254509  0.67301671  0.63529477    -0.17700
C869        C  0.59743880  0.65166330  0.59584761     0.10600
C870        C  0.59511076  0.60513410  0.59512946    -0.06500
C871        C  0.61746866  0.58131263  0.63405412    -0.17800
C872        C  0.64098605  0.60223577  0.67442649     0.10600
S873        S  0.56918605  0.68408275  0.54667656    -0.32700
S874        S  0.66382311  0.56665078  0.72380121    -0.32700
H875        H  0.66662637  0.52757640  0.69413918     0.28600
H876        H  0.57645578  0.72574963  0.56980691     0.28600
H877        H  0.62410579  0.70879211  0.63580850     0.19200
H878        H  0.61423998  0.54560573  0.63450506     0.19200
C879        C  0.58342314  0.40033788  0.89496498    -0.06600
C880        C  0.60459672  0.42382627  0.85431017    -0.17700
C881        C  0.62968682  0.40241719  0.81440881     0.10600
C882        C  0.63453511  0.35574927  0.81497646    -0.06500
C883        C  0.61232269  0.33224475  0.85513893    -0.17800
C884        C  0.58739689  0.35370173  0.89493597     0.10600
S885        S  0.65531802  0.43610625  0.76451675    -0.32700
S886        S  0.56339445  0.31953889  0.94541384    -0.32700
H887        H  0.57604925  0.34883419  0.98529561     0.28600
H888        H  0.63918960  0.47750211  0.78240545     0.28600
H889        H  0.60067883  0.45943087  0.85327788     0.19200
H890        H  0.61530787  0.29650795  0.85621090     0.19200
C891        C  0.59078617  0.38863305  0.60407864    -0.06600
C892        C  0.56622773  0.36734275  0.64392134    -0.17700
C893        C  0.58962280  0.35093693  0.68696651     0.10600
C894        C  0.63905463  0.35586274  0.69060160    -0.06500
C895        C  0.66274053  0.38045127  0.65278538    -0.17800
C896        C  0.63988114  0.39515222  0.60873213     0.10600
S897        S  0.55497893  0.32561333  0.73672094    -0.32700
S898        S  0.67528756  0.42156028  0.55970179    -0.32700
H899        H  0.64747943  0.40701649  0.51818888     0.28600
H900        H  0.51464686  0.31771575  0.70669801     0.28600
H901        H  0.52814606  0.36555948  0.64276936     0.19200
H902        H  0.69944252  0.38852190  0.65791447     0.19200
C903        C  0.40278982  0.41066743  0.88557423    -0.06600
C904        C  0.42752366  0.38376447  0.85023720    -0.17700
C905        C  0.40433286  0.35073386  0.82227101     0.10600
C906        C  0.35500378  0.34619343  0.82710687    -0.06500
C907        C  0.33148644  0.36922775  0.86675985    -0.17800
C908        C  0.35436912  0.40222730  0.89499614     0.10600
S909        S  0.43870104  0.31185391  0.78503574    -0.32700
S910        S  0.31918003  0.43365140  0.94041803    -0.32700
H911        H  0.34156084  0.47413454  0.92978737     0.28600
H912        H  0.48003630  0.31681102  0.81427564     0.28600
H913        H  0.46542451  0.38757358  0.84565506     0.19200
H914        H  0.29456553  0.36312097  0.87442640     0.19200
C915        C  0.36203456  0.35730235  0.70913739    -0.06600
C916        C  0.39160765  0.33773374  0.67208571    -0.17700
C917        C  0.41975878  0.36318411  0.63932712     0.10600
C918        C  0.42099350  0.40962824  0.64592214    -0.06500
C919        C  0.39140118  0.42930357  0.68282586    -0.17800
C920        C  0.36246264  0.40387555  0.71521909     0.10600
S921        S  0.44954010  0.33585499  0.58615614    -0.32700
S922        S  0.32514699  0.43214814  0.76149478    -0.32700
H923        H  0.34382808  0.47485940  0.75465024     0.28600
H924        H  0.44240351  0.29209753  0.60264854     0.28600
H925        H  0.39179255  0.30210683  0.66828417     0.19200
H926        H  0.38836716  0.46465838  0.68374737     0.19200
loop_ 
_geom_bond_atom_site_label_1 
_geom_bond_atom_site_label_2 
_geom_bond_distance 
_geom_bond_site_symmetry_2 
_ccdc_geom_bond_type 
O1            C9   1.246       .  A
O1          Co21   1.940       .  S
O2           C10   1.260       .  A
O2          Co22   1.884       .  S
O3           C11   1.276       .  A
O3          Co23   2.032       .  S
O4           C12   1.257       .  A
O4          Co24   2.005   1_554  S
O5           C11   1.268       .  A
O5          Co22   1.973       .  S
O6           C12   1.252       .  A
O6          Co21   1.962       .  S
O7           C10   1.297       .  A
O7         Co487   2.114       .  S
O8            C9   1.267       .  A
O8         Co486   2.025       .  S
C9          C428   1.473       .  S
C10         C395   1.467       .  S
C11         C416   1.492       .  S
C12         C407   1.474       .  S
O13          C26   1.274       .  A
O13         Co21   2.017       .  S
O14          C27   1.257       .  A
O14         Co22   1.993       .  S
O15          C28   1.255       .  A
O15        Co486   1.946       .  S
O16          C29   1.267       .  A
O16        Co487   1.889       .  S
O17          C29   1.293       .  A
O17         Co22   2.092       .  S
O18          C28   1.281       .  A
O18         Co21   2.059       .  S
O19          C26   1.276       .  A
O19         Co24   1.983   1_554  S
O20          C27   1.248       .  A
O20         Co23   1.954       .  S
Co21         O25   2.011       .  S
Co22        O488   1.999       .  S
Co23        O471   2.020       .  S
Co23        O478   1.942       .  S
Co23        O488   2.039       .  S
Co24        O470   2.113       .  S
Co24        O479   1.883       .  S
Co24         O25   2.024   1_556  S
O25        Co485   2.000   1_554  S
O25        Co486   2.041       .  S
C26         C383   1.486       .  S
C27         C440   1.465       .  S
C28         C455   1.476       .  S
C29         C368   1.463       .  S
C30          C67   1.466       .  S
C30         C323   1.494       .  S
C30          N48   1.354       .  A
N31          N48   1.328       .  A
N31          N53   1.320       .  A
N31         Co68   2.098   1_565  S
C32          C70   1.450       .  S
C32          N57   1.336       .  A
C32          H77   1.082       .  S
H33          C74   1.080       .  S
C34          C38   1.465       .  S
C34          N58   1.346       .  A
C34          H63   1.082       .  S
Co35         N53   2.096   1_545  S
Co35         N43   2.093   1_545  S
Co35         N75   2.104       .  S
Co35         N51   2.093       .  S
Co35        Cl79   2.462       .  S
N36          C74   1.347       .  A
N36          N43   1.319       .  A
N36         Co37   2.095   1_564  S
Co37         N57   2.073   1_556  S
Co37        N503   2.079   1_545  S
Co37        N507   2.092       .  S
Co37        Cl79   2.453   1_556  S
C38         C344   1.476       .  S
C38          N76   1.345       .  A
N39          N46   1.322       .  A
N39          N69   1.325       .  A
N39         Co72   2.090   1_565  S
N40          N58   1.321       .  A
N40          N76   1.325       .  A
N40        Co500   2.077   1_565  S
N41          C70   1.352       .  A
N41          N51   1.327       .  A
H42          C67   1.081       .  S
N43          N64   1.322       .  A
N44          N62   1.319       .  A
N44          N49   1.327       .  A
N44        Co500   2.095       .  S
C45          C73   1.470       .  S
C45         C308   1.500       .  S
C45          N49   1.355       .  A
N46          C61   1.342       .  A
N46        Co531   2.090   1_565  S
C47          C50   1.463       .  S
C47          N75   1.346       .  A
C47          H81   1.082       .  S
C50         C287   1.483       .  S
C50          N71   1.350       .  A
N51          N57   1.322       .  A
N52          C78   1.346       .  A
N52          N54   1.320       .  A
N52        Co531   2.093       .  S
N53          C67   1.342       .  A
N54          N82   1.323       .  A
N54         Co72   2.100       .  S
H55          C78   1.079       .  S
H56          C73   1.079       .  S
N58         Co72   2.106   1_565  S
N59          N71   1.328       .  A
N59          N75   1.322       .  A
N59         Co68   2.094       .  S
C60          C74   1.471       .  S
C60         C359   1.499       .  S
C60          N64   1.354       .  A
C61          C80   1.457       .  S
C61          H65   1.081       .  S
N62          C73   1.342       .  A
N62         Co72   2.094       .  S
C66          C78   1.471       .  S
C66         C275   1.499       .  S
C66          N82   1.354       .  A
Co68        N509   2.085   1_544  S
Co68        N515   2.094   1_554  S
Co68        Cl79   2.458       .  S
N69          C80   1.349       .  A
C70         C299   1.468       .  S
Co72       Cl542   2.459       .  S
Cl79       Co535   2.462   1_554  S
C80         C335   1.472       .  S
C83         C120   1.469       .  S
C83         C224   1.473       .  S
C83         N101   1.341       .  A
N84         N101   1.321       .  A
N84         N106   1.320       .  A
N84        Co121   2.060   1_655  S
C85         C123   1.453       .  S
C85         N110   1.339       .  A
C85         H130   1.082       .  S
H86         C127   1.081       .  S
C87          C91   1.474       .  S
C87         N111   1.340       .  A
C87         H116   1.081       .  S
Co88        N106   2.109   1_455  S
Co88         N96   2.091   1_455  S
Co88        N128   2.089       .  S
Co88        N104   2.097       .  S
Co88       Cl132   2.461       .  S
N89         C127   1.335       .  A
N89          N96   1.323       .  A
N89         Co90   2.071   1_654  S
Co90        N110   2.071   1_556  S
Co90        N556   2.079   1_455  S
Co90        N560   2.092       .  S
Co90       Cl132   2.449   1_556  S
C91         C251   1.499       .  S
C91         N129   1.350       .  A
N92          N99   1.318       .  A
N92         N122   1.325       .  A
N92        Co125   2.103   1_655  S
N93         N111   1.318       .  A
N93         N129   1.326       .  A
N93        Co553   2.081   1_655  S
N94         C123   1.350       .  A
N94         N104   1.325       .  A
H95         C120   1.081       .  S
N96         N117   1.325       .  A
N97         N115   1.320       .  A
N97         N102   1.327       .  A
N97        Co553   2.085       .  S
C98         C126   1.470       .  S
C98         C188   1.494       .  S
C98         N102   1.351       .  A
N99         C114   1.340       .  A
N99        Co584   2.074   1_655  S
C100        C103   1.465       .  S
C100        N128   1.342       .  A
C100        H134   1.081       .  S
C103        C215   1.481       .  S
C103        N124   1.349       .  A
N104        N110   1.322       .  A
N105        C131   1.336       .  A
N105        N107   1.320       .  A
N105       Co584   2.064       .  S
N106        C120   1.349       .  A
N107        N135   1.326       .  A
N107       Co125   2.098       .  S
H108        C131   1.082       .  S
H109        C126   1.081       .  S
N111       Co125   2.096   1_655  S
N112        N124   1.324       .  A
N112        N128   1.320       .  A
N112       Co121   2.084       .  S
C113        C127   1.447       .  S
C113        C263   1.458       .  S
C113        N117   1.350       .  A
C114        C133   1.464       .  S
C114        H118   1.078       .  S
N115        C126   1.343       .  A
N115       Co125   2.104       .  S
C119        C131   1.448       .  S
C119        C203   1.466       .  S
C119        N135   1.353       .  A
Co121       N562   2.080   1_454  S
Co121       N568   2.064   1_554  S
Co121      Cl132   2.443       .  S
N122        C133   1.357       .  A
C123        C176   1.469       .  S
Co125      Cl595   2.459       .  S
Cl132      Co588   2.460   1_554  S
C133        C239   1.495       .  S
C136        H137   1.091       .  S
C136        C142   1.552       .  S
C136        C141   1.523       .  S
C136        C140   1.546       .  S
C138        H139   1.111       .  S
C138        C144   1.544       .  S
C138        C143   1.530       .  S
C138        C145   1.540       .  S
C140        C143   1.372       .  D
C140        C452   1.488       .  S
C141        C144   1.367       .  D
C141        C212   1.487       .  S
C142        C145   1.396       .  D
C142        C296   1.530       .  S
C143        C443   1.480       .  S
C144        C200   1.479       .  S
C145        C311   1.500       .  S
C146        H147   1.103       .  S
C146        C152   1.550       .  S
C146        C151   1.543       .  S
C146        C150   1.560       .  S
C148        H149   1.111       .  S
C148        C154   1.550       .  S
C148        C153   1.537       .  S
C148        C155   1.541       .  S
C150        C153   1.382       .  D
C150        C431   1.488       .  S
C151        C154   1.384       .  D
C151        C284   1.526       .  S
C152        C155   1.382       .  D
C152        C227   1.518       .  S
C153        C419   1.505       .  S
C154        C272   1.501       .  S
C155        C236   1.501       .  S
C156        H157   1.106       .  S
C156        C162   1.547       .  S
C156        C161   1.533       .  S
C156        C160   1.547       .  S
C158        H159   1.106       .  S
C158        C164   1.537       .  S
C158        C163   1.549       .  S
C158        C165   1.551       .  S
C160        C163   1.393       .  D
C160        C371   1.488       .  S
C161        C164   1.366       .  D
C161        C191   1.492       .  S
C162        C165   1.389       .  D
C162        C347   1.521       .  S
C163        C380   1.520       .  S
C164        C179   1.492       .  S
C165        C356   1.505       .  S
C166        H167   1.111       .  S
C166        C172   1.529       .  S
C166        C171   1.539       .  S
C166        C170   1.545       .  S
C168        H169   1.110       .  S
C168        C174   1.545       .  S
C168        C173   1.545       .  S
C168        C175   1.545       .  S
C170        C173   1.387       .  D
C170        C404   1.497       .  S
C171        C174   1.383       .  D
C171        C260   1.489       .  S
C172        C175   1.369       .  D
C172        C320   1.495       .  S
C173        C392   1.493       .  S
C174        C248   1.511       .  S
C175        C332   1.494       .  S
C176        C177   1.392       .  A
C176        C181   1.413       .  A
C177        H186   1.084       .  S
C177        C178   1.396       .  A
C178        C179   1.418       .  A
C178        S182   1.796       .  S
C179        C180   1.403       .  A
C180        H187   1.084       .  S
C180        C181   1.404       .  A
C181        S183   1.803       .  S
S182        H185   1.407       .  S
S183        H184   1.406       .  S
C188        C189   1.411       .  A
C188        C193   1.413       .  A
C189        H198   1.083       .  S
C189        C190   1.410       .  A
C190        C191   1.411       .  A
C190        S194   1.803       .  S
C191        C192   1.397       .  A
C192        H199   1.078       .  S
C192        C193   1.394       .  A
C193        S195   1.791       .  S
S194        H197   1.405       .  S
S195        H196   1.407       .  S
C200        C201   1.400       .  A
C200        C205   1.412       .  A
C201        H210   1.079       .  S
C201        C202   1.389       .  A
C202        C203   1.403       .  A
C202        S206   1.797       .  S
C203        C204   1.404       .  A
C204        H211   1.084       .  S
C204        C205   1.403       .  A
C205        S207   1.805       .  S
S206        H209   1.406       .  S
S207        H208   1.401       .  S
C212        C213   1.401       .  A
C212        C217   1.409       .  A
C213        H222   1.075       .  S
C213        C214   1.401       .  A
C214        C215   1.411       .  A
C214        S218   1.808       .  S
C215        C216   1.408       .  A
C216        H223   1.084       .  S
C216        C217   1.402       .  A
C217        S219   1.803       .  S
S218        H221   1.406       .  S
S219        H220   1.405       .  S
C224        C225   1.403       .  A
C224        C229   1.406       .  A
C225        H234   1.084       .  S
C225        C226   1.407       .  A
C226        C227   1.420       .  A
C226        S230   1.803       .  S
C227        C228   1.408       .  A
C228        H235   1.073       .  S
C228        C229   1.398       .  A
C229        S231   1.804       .  S
S230        H233   1.407       .  S
S231        H232   1.406       .  S
C236        C237   1.402       .  A
C236        C241   1.418       .  A
C237        H246   1.084       .  S
C237        C238   1.405       .  A
C238        C239   1.422       .  A
C238        S242   1.797       .  S
C239        C240   1.402       .  A
C240        H247   1.082       .  S
C240        C241   1.400       .  A
C241        S243   1.802       .  S
S242        H245   1.408       .  S
S243        H244   1.406       .  S
C248        C249   1.406       .  A
C248        C253   1.426       .  A
C249        H258   1.084       .  S
C249        C250   1.410       .  A
C250        C251   1.421       .  A
C250        S254   1.799       .  S
C251        C252   1.397       .  A
C252        H259   1.081       .  S
C252        C253   1.394       .  A
C253        S255   1.794       .  S
S254        H257   1.407       .  S
S255        H256   1.382       .  S
C260        C261   1.409       .  A
C260        C265   1.415       .  A
C261        H270   1.082       .  S
C261        C262   1.393       .  A
C262        C263   1.405       .  A
C262        S266   1.806       .  S
C263        C264   1.400       .  A
C264        H271   1.084       .  S
C264        C265   1.399       .  A
C265        S267   1.804       .  S
S266        H269   1.406       .  S
S267        H268   1.402       .  S
C272        C273   1.404       .  A
C272        C277   1.411       .  A
C273        H282   1.083       .  S
C273        C274   1.415       .  A
C274        C275   1.422       .  A
C274        S278   1.804       .  S
C275        C276   1.402       .  A
C276        H283   1.082       .  S
C276        C277   1.396       .  A
C277        S279   1.793       .  S
S278        H281   1.407       .  S
S279        H280   1.407       .  S
C284        C285   1.412       .  A
C284        C289   1.429       .  A
C285        H294   1.083       .  S
C285        C286   1.409       .  A
C286        C287   1.414       .  A
C286        S290   1.807       .  S
C287        C288   1.394       .  A
C288        H295   1.083       .  S
C288        C289   1.405       .  A
C289        S291   1.799       .  S
S290        H293   1.402       .  S
S291        H292   1.406       .  S
C296        C297   1.415       .  A
C296        C301   1.436       .  A
C297        H306   1.080       .  S
C297        C298   1.397       .  A
C298        C299   1.403       .  A
C298        S302   1.804       .  S
C299        C300   1.392       .  A
C300        H307   1.083       .  S
C300        C301   1.404       .  A
C301        S303   1.807       .  S
S302        H305   1.406       .  S
S303        H304   1.406       .  S
C308        C309   1.409       .  A
C308        C313   1.418       .  A
C309        H318   1.082       .  S
C309        C310   1.408       .  A
C310        C311   1.408       .  A
C310        S314   1.803       .  S
C311        C312   1.401       .  A
C312        H319   1.081       .  S
C312        C313   1.405       .  A
C313        S315   1.802       .  S
S314        H317   1.406       .  S
S315        H316   1.406       .  S
C320        C321   1.402       .  A
C320        C325   1.412       .  A
C321        H330   1.080       .  S
C321        C322   1.400       .  A
C322        C323   1.416       .  A
C322        S326   1.801       .  S
C323        C324   1.409       .  A
C324        H331   1.083       .  S
C324        C325   1.407       .  A
C325        S327   1.801       .  S
S326        H329   1.407       .  S
S327        H328   1.402       .  S
C332        C333   1.406       .  A
C332        C337   1.415       .  A
C333        H342   1.083       .  S
C333        C334   1.402       .  A
C334        C335   1.412       .  A
C334        S338   1.804       .  S
C335        C336   1.396       .  A
C336        H343   1.083       .  S
C336        C337   1.401       .  A
C337        S339   1.798       .  S
S338        H341   1.405       .  S
S339        H340   1.407       .  S
C344        C345   1.393       .  A
C344        C349   1.411       .  A
C345        H354   1.083       .  S
C345        C346   1.403       .  A
C346        C347   1.429       .  A
C346        S350   1.801       .  S
C347        C348   1.412       .  A
C348        H355   1.083       .  S
C348        C349   1.405       .  A
C349        S351   1.805       .  S
S350        H353   1.407       .  S
S351        H352   1.403       .  S
C356        C357   1.406       .  A
C356        C361   1.415       .  A
C357        H366   1.084       .  S
C357        C358   1.412       .  A
C358        C359   1.421       .  A
C358        S362   1.797       .  S
C359        C360   1.400       .  A
C360        H367   1.081       .  S
C360        C361   1.395       .  A
C361        S363   1.792       .  S
S362        H365   1.407       .  S
S363        H364   1.407       .  S
C368        C369   1.396       .  A
C368        C373   1.410       .  A
C369        H378   1.084       .  S
C369        C370   1.390       .  A
C370        C371   1.407       .  A
C370        S374   1.779       .  S
C371        C372   1.407       .  A
C372        H379   1.080       .  S
C372        C373   1.402       .  A
C373        S375   1.802       .  S
S374        H377   1.400       .  S
S375        H376   1.405       .  S
C380        C381   1.412       .  A
C380        C385   1.424       .  A
C381        H390   1.074       .  S
C381        C382   1.402       .  A
C382        C383   1.410       .  A
C382        S386   1.804       .  S
C383        C384   1.401       .  A
C384        H391   1.083       .  S
C384        C385   1.407       .  A
C385        S387   1.808       .  S
S386        H389   1.407       .  S
S387        H388   1.407       .  S
C392        C393   1.410       .  A
C392        C397   1.418       .  A
C393        H402   1.083       .  S
C393        C394   1.398       .  A
C394        C395   1.407       .  A
C394        S398   1.803       .  S
C395        C396   1.400       .  A
C396        H403   1.084       .  S
C396        C397   1.395       .  A
C397        S399   1.797       .  S
S398        H401   1.405       .  S
S399        H400   1.397       .  S
C404        C405   1.412       .  A
C404        C409   1.421       .  A
C405        H414   1.082       .  S
C405        C406   1.403       .  A
C406        C407   1.406       .  A
C406        S410   1.806       .  S
C407        C408   1.400       .  A
C408        H415   1.083       .  S
C408        C409   1.393       .  A
C409        S411   1.803       .  S
S410        H413   1.408       .  S
S411        H412   1.407       .  S
C416        C417   1.405       .  A
C416        C421   1.415       .  A
C417        H426   1.083       .  S
C417        C418   1.404       .  A
C418        C419   1.418       .  A
C418        S422   1.798       .  S
C419        C420   1.408       .  A
C420        H427   1.084       .  S
C420        C421   1.402       .  A
C421        S423   1.801       .  S
S422        H425   1.407       .  S
S423        H424   1.406       .  S
C428        C429   1.402       .  A
C428        C433   1.411       .  A
C429        H438   1.079       .  S
C429        C430   1.398       .  A
C430        C431   1.410       .  A
C430        S434   1.791       .  S
C431        C432   1.401       .  A
C432        H439   1.076       .  S
C432        C433   1.395       .  A
C433        S435   1.803       .  S
S434        H437   1.407       .  S
S435        H436   1.408       .  S
C440        C441   1.403       .  A
C440        C445   1.413       .  A
C441        H450   1.084       .  S
C441        C442   1.394       .  A
C442        C443   1.406       .  A
C442        S446   1.798       .  S
C443        C444   1.400       .  A
C444        H451   1.078       .  S
C444        C445   1.393       .  A
C445        S447   1.802       .  S
S446        H449   1.407       .  S
S447        H448   1.404       .  S
C452        C453   1.394       .  A
C452        C457   1.416       .  A
C453        H462   1.080       .  S
C453        C454   1.393       .  A
C454        C455   1.413       .  A
C454        S458   1.805       .  S
C455        C456   1.400       .  A
C456        H463   1.075       .  S
C456        C457   1.405       .  A
C457        S459   1.804       .  S
S458        H461   1.407       .  S
S459        H460   1.407       .  S
O464        C472   1.248       .  A
O464       Co484   1.942       .  S
O465        C473   1.262       .  A
O465       Co485   1.891       .  S
O466        C474   1.276       .  A
O466       Co486   2.031   1_556  S
O467        C475   1.258       .  A
O467       Co487   2.007       .  S
O468        C474   1.268       .  A
O468       Co485   1.972       .  S
O469        C475   1.253       .  A
O469       Co484   1.966       .  S
O470        C473   1.296       .  A
O471        C472   1.267       .  A
C472        C891   1.469       .  S
C473        C858   1.472       .  S
C474        C879   1.490       .  S
C475        C870   1.478       .  S
O476        C489   1.276       .  A
O476       Co484   2.021       .  S
O477        C490   1.260       .  A
O477       Co485   2.000       .  S
O478        C491   1.254       .  A
O479        C492   1.267       .  A
O480        C492   1.294       .  A
O480       Co485   2.093       .  S
O481        C491   1.280       .  A
O481       Co484   2.056       .  S
O482        C489   1.274       .  A
O482       Co487   1.978       .  S
O483        C490   1.251       .  A
O483       Co486   1.961   1_556  S
Co484       O488   2.012       .  S
Co487       O488   2.022       .  S
C489        C846   1.483       .  S
C490        C903   1.472       .  S
C491        C918   1.473       .  S
C492        C831   1.460       .  S
C493        C530   1.463       .  S
C493        C786   1.489       .  S
C493        N511   1.354       .  A
N494        N511   1.328       .  A
N494        N516   1.321       .  A
N494       Co531   2.098   1_565  S
C495        C533   1.449       .  S
C495        N520   1.335       .  A
C495        H540   1.082       .  S
H496        C537   1.079       .  S
C497        C501   1.463       .  S
C497        N521   1.345       .  A
C497        H526   1.082       .  S
Co498       N516   2.092   1_545  S
Co498       N506   2.090   1_545  S
Co498       N538   2.097       .  S
Co498       N514   2.096       .  S
Co498      Cl542   2.463       .  S
N499        C537   1.345       .  A
N499        N506   1.319       .  A
N499       Co500   2.092   1_565  S
Co500       N520   2.071       .  S
Co500      Cl542   2.451       .  S
C501        C807   1.474       .  S
C501        N539   1.346       .  A
N502        N509   1.322       .  A
N502        N532   1.326       .  A
N502       Co535   2.091   1_565  S
N503        N521   1.321       .  A
N503        N539   1.324       .  A
N504        C533   1.353       .  A
N504        N514   1.328       .  A
H505        C530   1.081       .  S
N506        N527   1.322       .  A
N507        N525   1.319       .  A
N507        N512   1.326       .  A
C508        C536   1.468       .  S
C508        C771   1.494       .  S
C508        N512   1.353       .  A
N509        C524   1.340       .  A
C510        C513   1.461       .  S
C510        N538   1.345       .  A
C510        H544   1.082       .  S
C513        C750   1.478       .  S
C513        N534   1.349       .  A
N514        N520   1.322       .  A
N515        C541   1.345       .  A
N515        N517   1.320       .  A
N516        C530   1.340       .  A
N517        N545   1.324       .  A
N517       Co535   2.103       .  S
H518        C541   1.079       .  S
H519        C536   1.080       .  S
N521       Co535   2.103   1_565  S
N522        N534   1.326       .  A
N522        N538   1.322       .  A
N522       Co531   2.093       .  S
C523        C537   1.470       .  S
C523        C822   1.496       .  S
C523        N527   1.353       .  A
C524        C543   1.453       .  S
C524        H528   1.081       .  S
N525        C536   1.341       .  A
N525       Co535   2.090       .  S
C529        C541   1.470       .  S
C529        C738   1.500       .  S
C529        N545   1.356       .  A
Co531      Cl542   2.461       .  S
N532        C543   1.350       .  A
C533        C762   1.469       .  S
C543        C798   1.469       .  S
C546        C583   1.466       .  S
C546        C687   1.471       .  S
C546        N564   1.342       .  A
N547        N564   1.321       .  A
N547        N569   1.320       .  A
N547       Co584   2.063   1_655  S
C548        C586   1.451       .  S
C548        N573   1.339       .  A
C548        H593   1.081       .  S
H549        C590   1.081       .  S
C550        C554   1.472       .  S
C550        N574   1.338       .  A
C550        H579   1.081       .  S
Co551       N569   2.104   1_455  S
Co551       N559   2.087   1_455  S
Co551       N591   2.093       .  S
Co551       N567   2.092       .  S
Co551      Cl595   2.465       .  S
N552        C590   1.333       .  A
N552        N559   1.322       .  A
N552       Co553   2.063   1_655  S
Co553       N573   2.075       .  S
Co553      Cl595   2.447       .  S
C554        C714   1.496       .  S
C554        N592   1.350       .  A
N555        N562   1.318       .  A
N555        N585   1.326       .  A
N555       Co588   2.105   1_655  S
N556        N574   1.318       .  A
N556        N592   1.326       .  A
N557        C586   1.349       .  A
N557        N567   1.325       .  A
H558        C583   1.081       .  S
N559        N580   1.324       .  A
N560        N578   1.319       .  A
N560        N565   1.327       .  A
C561        C589   1.472       .  S
C561        C651   1.502       .  S
C561        N565   1.355       .  A
N562        C577   1.340       .  A
C563        C566   1.467       .  S
C563        N591   1.343       .  A
C563        H597   1.081       .  S
C566        C678   1.481       .  S
C566        N587   1.348       .  A
N567        N573   1.323       .  A
N568        C594   1.336       .  A
N568        N570   1.320       .  A
N569        C583   1.348       .  A
N570        N598   1.326       .  A
N570       Co588   2.093       .  S
H571        C594   1.082       .  S
H572        C589   1.079       .  S
N574       Co588   2.089   1_655  S
N575        N587   1.322       .  A
N575        N591   1.320       .  A
N575       Co584   2.078       .  S
C576        C590   1.444       .  S
C576        C726   1.453       .  S
C576        N580   1.349       .  A
C577        C596   1.465       .  S
C577        H581   1.078       .  S
N578        C589   1.342       .  A
N578       Co588   2.100       .  S
C582        C594   1.448       .  S
C582        C666   1.464       .  S
C582        N598   1.352       .  A
Co584      Cl595   2.440       .  S
N585        C596   1.358       .  A
C586        C639   1.464       .  S
C596        C702   1.499       .  S
C599        H600   1.089       .  S
C599        C605   1.552       .  S
C599        C604   1.522       .  S
C599        C603   1.545       .  S
C601        H602   1.111       .  S
C601        C607   1.541       .  S
C601        C606   1.532       .  S
C601        C608   1.540       .  S
C603        C606   1.374       .  D
C603        C915   1.486       .  S
C604        C607   1.366       .  D
C604        C675   1.487       .  S
C605        C608   1.396       .  D
C605        C759   1.533       .  S
C606        C906   1.486       .  S
C607        C663   1.477       .  S
C608        C774   1.494       .  S
C609        H610   1.099       .  S
C609        C615   1.548       .  S
C609        C614   1.541       .  S
C609        C613   1.560       .  S
C611        H612   1.111       .  S
C611        C617   1.550       .  S
C611        C616   1.537       .  S
C611        C618   1.543       .  S
C613        C616   1.383       .  D
C613        C894   1.488       .  S
C614        C617   1.385       .  D
C614        C747   1.526       .  S
C615        C618   1.382       .  D
C615        C690   1.519       .  S
C616        C882   1.504       .  S
C617        C735   1.502       .  S
C618        C699   1.502       .  S
C619        H620   1.107       .  S
C619        C625   1.544       .  S
C619        C624   1.530       .  S
C619        C623   1.541       .  S
C621        H622   1.106       .  S
C621        C627   1.542       .  S
C621        C626   1.551       .  S
C621        C628   1.548       .  S
C623        C626   1.388       .  D
C623        C834   1.484       .  S
C624        C627   1.373       .  D
C624        C654   1.493       .  S
C625        C628   1.386       .  D
C625        C810   1.517       .  S
C626        C843   1.515       .  S
C627        C642   1.503       .  S
C628        C819   1.501       .  S
C629        H630   1.110       .  S
C629        C635   1.524       .  S
C629        C634   1.536       .  S
C629        C633   1.546       .  S
C631        H632   1.110       .  S
C631        C637   1.545       .  S
C631        C636   1.546       .  S
C631        C638   1.545       .  S
C633        C636   1.388       .  D
C633        C867   1.502       .  S
C634        C637   1.382       .  D
C634        C723   1.487       .  S
C635        C638   1.369       .  D
C635        C783   1.489       .  S
C636        C855   1.496       .  S
C637        C711   1.507       .  S
C638        C795   1.496       .  S
C639        C640   1.390       .  A
C639        C644   1.410       .  A
C640        H649   1.083       .  S
C640        C641   1.398       .  A
C641        C642   1.421       .  A
C641        S645   1.794       .  S
C642        C643   1.409       .  A
C643        H650   1.084       .  S
C643        C644   1.402       .  A
C644        S646   1.805       .  S
S645        H648   1.406       .  S
S646        H647   1.404       .  S
C651        C652   1.412       .  A
C651        C656   1.420       .  A
C652        H661   1.083       .  S
C652        C653   1.408       .  A
C653        C654   1.410       .  A
C653        S657   1.803       .  S
C654        C655   1.400       .  A
C655        H662   1.085       .  S
C655        C656   1.397       .  A
C656        S658   1.792       .  S
S657        H660   1.406       .  S
S658        H659   1.404       .  S
C663        C664   1.399       .  A
C663        C668   1.411       .  A
C664        H673   1.079       .  S
C664        C665   1.388       .  A
C665        C666   1.403       .  A
C665        S669   1.797       .  S
C666        C667   1.404       .  A
C667        H674   1.084       .  S
C667        C668   1.402       .  A
C668        S670   1.804       .  S
S669        H672   1.406       .  S
S670        H671   1.402       .  S
C675        C676   1.402       .  A
C675        C680   1.408       .  A
C676        H685   1.074       .  S
C676        C677   1.401       .  A
C677        C678   1.410       .  A
C677        S681   1.808       .  S
C678        C679   1.408       .  A
C679        H686   1.084       .  S
C679        C680   1.401       .  A
C680        S682   1.803       .  S
S681        H684   1.406       .  S
S682        H683   1.404       .  S
C687        C688   1.402       .  A
C687        C692   1.405       .  A
C688        H697   1.084       .  S
C688        C689   1.406       .  A
C689        C690   1.420       .  A
C689        S693   1.802       .  S
C690        C691   1.410       .  A
C691        H698   1.073       .  S
C691        C692   1.397       .  A
C692        S694   1.805       .  S
S693        H696   1.407       .  S
S694        H695   1.406       .  S
C699        C700   1.400       .  A
C699        C704   1.418       .  A
C700        H709   1.084       .  S
C700        C701   1.404       .  A
C701        C702   1.424       .  A
C701        S705   1.796       .  S
C702        C703   1.404       .  A
C703        H710   1.082       .  S
C703        C704   1.403       .  A
C704        S706   1.803       .  S
S705        H708   1.408       .  S
S706        H707   1.407       .  S
C711        C712   1.406       .  A
C711        C716   1.425       .  A
C712        H721   1.084       .  S
C712        C713   1.409       .  A
C713        C714   1.421       .  A
C713        S717   1.799       .  S
C714        C715   1.397       .  A
C715        H722   1.080       .  S
C715        C716   1.391       .  A
C716        S718   1.795       .  S
S717        H720   1.408       .  S
S718        H719   1.382       .  S
C723        C724   1.409       .  A
C723        C728   1.414       .  A
C724        H733   1.082       .  S
C724        C725   1.390       .  A
C725        C726   1.404       .  A
C725        S729   1.806       .  S
C726        C727   1.401       .  A
C727        H734   1.084       .  S
C727        C728   1.398       .  A
C728        S730   1.803       .  S
S729        H732   1.406       .  S
S730        H731   1.406       .  S
C735        C736   1.404       .  A
C735        C740   1.412       .  A
C736        H745   1.083       .  S
C736        C737   1.415       .  A
C737        C738   1.422       .  A
C737        S741   1.804       .  S
C738        C739   1.402       .  A
C739        H746   1.082       .  S
C739        C740   1.397       .  A
C740        S742   1.794       .  S
S741        H744   1.407       .  S
S742        H743   1.407       .  S
C747        C748   1.413       .  A
C747        C752   1.432       .  A
C748        H757   1.082       .  S
C748        C749   1.405       .  A
C749        C750   1.409       .  A
C749        S753   1.805       .  S
C750        C751   1.392       .  A
C751        H758   1.083       .  S
C751        C752   1.405       .  A
C752        S754   1.802       .  S
S753        H756   1.405       .  S
S754        H755   1.406       .  S
C759        C760   1.416       .  A
C759        C764   1.434       .  A
C760        H769   1.080       .  S
C760        C761   1.399       .  A
C761        C762   1.405       .  A
C761        S765   1.805       .  S
C762        C763   1.393       .  A
C763        H770   1.084       .  S
C763        C764   1.403       .  A
C764        S766   1.805       .  S
S765        H768   1.405       .  S
S766        H767   1.408       .  S
C771        C772   1.409       .  A
C771        C776   1.417       .  A
C772        H781   1.082       .  S
C772        C773   1.407       .  A
C773        C774   1.408       .  A
C773        S777   1.803       .  S
C774        C775   1.400       .  A
C775        H782   1.080       .  S
C775        C776   1.402       .  A
C776        S778   1.803       .  S
S777        H780   1.406       .  S
S778        H779   1.406       .  S
C783        C784   1.398       .  A
C783        C788   1.408       .  A
C784        H793   1.080       .  S
C784        C785   1.396       .  A
C785        C786   1.415       .  A
C785        S789   1.801       .  S
C786        C787   1.409       .  A
C787        H794   1.082       .  S
C787        C788   1.410       .  A
C788        S790   1.805       .  S
S789        H792   1.407       .  S
S790        H791   1.407       .  S
C795        C796   1.407       .  A
C795        C800   1.416       .  A
C796        H805   1.084       .  S
C796        C797   1.401       .  A
C797        C798   1.411       .  A
C797        S801   1.807       .  S
C798        C799   1.397       .  A
C799        H806   1.083       .  S
C799        C800   1.402       .  A
C800        S802   1.800       .  S
S801        H804   1.403       .  S
S802        H803   1.406       .  S
C807        C808   1.392       .  A
C807        C812   1.409       .  A
C808        H817   1.083       .  S
C808        C809   1.402       .  A
C809        C810   1.428       .  A
C809        S813   1.801       .  S
C810        C811   1.412       .  A
C811        H818   1.083       .  S
C811        C812   1.404       .  A
C812        S814   1.804       .  S
S813        H816   1.407       .  S
S814        H815   1.405       .  S
C819        C820   1.404       .  A
C819        C824   1.414       .  A
C820        H829   1.084       .  S
C820        C821   1.409       .  A
C821        C822   1.420       .  A
C821        S825   1.797       .  S
C822        C823   1.401       .  A
C823        H830   1.081       .  S
C823        C824   1.396       .  A
C824        S826   1.796       .  S
S825        H828   1.407       .  S
S826        H827   1.407       .  S
C831        C832   1.395       .  A
C831        C836   1.410       .  A
C832        H841   1.084       .  S
C832        C833   1.388       .  A
C833        C834   1.406       .  A
C833        S837   1.779       .  S
C834        C835   1.407       .  A
C835        H842   1.083       .  S
C835        C836   1.403       .  A
C836        S838   1.803       .  S
S837        H840   1.403       .  S
S838        H839   1.405       .  S
C843        C844   1.411       .  A
C843        C848   1.423       .  A
C844        H853   1.077       .  S
C844        C845   1.402       .  A
C845        C846   1.408       .  A
C845        S849   1.801       .  S
C846        C847   1.400       .  A
C847        H854   1.083       .  S
C847        C848   1.405       .  A
C848        S850   1.805       .  S
S849        H852   1.408       .  S
S850        H851   1.406       .  S
C855        C856   1.410       .  A
C855        C860   1.416       .  A
C856        H865   1.083       .  S
C856        C857   1.400       .  A
C857        C858   1.409       .  A
C857        S861   1.803       .  S
C858        C859   1.401       .  A
C859        H866   1.084       .  S
C859        C860   1.396       .  A
C860        S862   1.794       .  S
S861        H864   1.405       .  S
S862        H863   1.398       .  S
C867        C868   1.412       .  A
C867        C872   1.422       .  A
C868        H877   1.082       .  S
C868        C869   1.405       .  A
C869        C870   1.408       .  A
C869        S873   1.806       .  S
C870        C871   1.400       .  A
C871        H878   1.083       .  S
C871        C872   1.394       .  A
C872        S874   1.803       .  S
S873        H876   1.407       .  S
S874        H875   1.407       .  S
C879        C880   1.406       .  A
C879        C884   1.414       .  A
C880        H889   1.082       .  S
C880        C881   1.405       .  A
C881        C882   1.417       .  A
C881        S885   1.801       .  S
C882        C883   1.409       .  A
C883        H890   1.084       .  S
C883        C884   1.401       .  A
C884        S886   1.802       .  S
S885        H888   1.406       .  S
S886        H887   1.407       .  S
C891        C892   1.401       .  A
C891        C896   1.409       .  A
C892        H901   1.079       .  S
C892        C893   1.398       .  A
C893        C894   1.410       .  A
C893        S897   1.791       .  S
C894        C895   1.401       .  A
C895        H902   1.076       .  S
C895        C896   1.394       .  A
C896        S898   1.803       .  S
S897        H900   1.407       .  S
S898        H899   1.408       .  S
C903        C904   1.404       .  A
C903        C908   1.413       .  A
C904        H913   1.084       .  S
C904        C905   1.397       .  A
C905        C906   1.407       .  A
C905        S909   1.797       .  S
C906        C907   1.402       .  A
C907        H914   1.078       .  S
C907        C908   1.396       .  A
C908        S910   1.802       .  S
S909        H912   1.407       .  S
S910        H911   1.405       .  S
C915        C916   1.397       .  A
C915        C920   1.415       .  A
C916        H925   1.080       .  S
C916        C917   1.395       .  A
C917        C918   1.413       .  A
C917        S921   1.806       .  S
C918        C919   1.397       .  A
C919        H926   1.072       .  S
C919        C920   1.402       .  A
C920        S922   1.803       .  S
S921        H924   1.407       .  S
S922        H923   1.407       .  S
