geometry optimzed in LAMMPS
_audit_creation_date              2020-11-30 
_audit_creation_method            'lammps2cif' 
_symmetry_space_group_name_H-M    'P1' 
_symmetry_Int_Tables_number       1 
_symmetry_cell_setting            triclinic 
loop_ 
_symmetry_equiv_pos_as_xyz 
  x,y,z 
_cell_length_a                    25.7557312 
_cell_length_b                    36.337866147813074 
_cell_length_c                    51.097044937022766 
_cell_angle_alpha                 90.04069306927354 
_cell_angle_beta                  89.85625408538692 
_cell_angle_gamma                 90.01237678865746 
loop_ 
_atom_site_label 
_atom_site_type_symbol 
_atom_site_fract_x 
_atom_site_fract_y 
_atom_site_fract_z 
_atom_site_charge 
O1          O  0.54297175  0.52778982  0.47447564    -0.71400
O2          O  0.53423914  0.45869228  0.03050751    -0.71600
O3          O  0.53095724  0.45468727  0.47807164    -0.71400
O4          O  0.54677150  0.53232337  0.02699648    -0.71500
O5          O  0.46352210  0.53271257  0.03279156    -0.71400
O6          O  0.44935097  0.46816974  0.47473668    -0.71400
O7          O  0.45049198  0.45957926  0.02701188    -0.71400
O8          O  0.46163876  0.54070785  0.48042294    -0.71600
V9          V  0.53745779  0.49348917  0.50260134     1.35200
V10         V  0.45756433  0.50019143  0.00380174     1.35200
C11         C  0.50353934  0.54658543  0.46815451     0.77900
C12         C  0.49053867  0.44592550  0.03747378     0.77900
C13         C  0.48793720  0.44975584  0.46677726     0.77800
C14         C  0.50778825  0.54501660  0.03903648     0.77800
O15         O  0.96658515  0.03279583  0.02668712    -0.71400
O16         O  0.97511970  0.96853795  0.46831842    -0.71600
O17         O  0.97368679  0.96000427  0.02076850    -0.71400
O18         O  0.96854685  0.04120334  0.47418517    -0.71500
O19         O  0.05227766  0.03818740  0.47022625    -0.71400
O20         O  0.05532367  0.97079383  0.02673010    -0.71400
O21         O  0.05814697  0.96494855  0.47388469    -0.71400
O22         O  0.04898589  0.04375590  0.02311673    -0.71600
V23         V  0.97227440  0.00072041  0.99752789     1.35200
V24         V  0.05248069  0.00436823  0.99845633     1.35200
C25         C  0.00622688  0.04997975  0.03461353     0.77900
C26         C  0.01812392  0.95492307  0.46136335     0.77900
C27         C  0.01495750  0.95328510  0.03323469     0.77800
C28         C  0.00957010  0.05153594  0.46267757     0.77800
C29         C  0.92803137  0.26819537  0.24986344     0.30400
C30         C  0.03492692  0.26831187  0.24669567     0.30400
C31         C  0.95465879  0.30606671  0.24948917    -0.05800
C32         C  0.95728868  0.24725522  0.27181239    -0.06600
C33         C  0.95170084  0.24889082  0.22561954    -0.06400
C34         C  0.00849315  0.30591068  0.24813934    -0.04000
C35         C  0.01140646  0.24751306  0.27003392    -0.06600
C36         C  0.00606031  0.24894959  0.22406394    -0.06400
C37         C  0.02484509  0.34191296  0.24771134    -0.31800
N38         N  0.98248386  0.36413033  0.24819899     0.14700
C39         C  0.93933151  0.34247514  0.24918153    -0.31800
H40         H  0.89976323  0.35248013  0.24936309     0.16600
C41         C  0.03024521  0.22430120  0.28903984    -0.30800
N42         N  0.98960951  0.21061346  0.30271995     0.13400
C43         C  0.94487596  0.22338617  0.29200333    -0.30800
C44         C  0.01942500  0.22340582  0.20523469    -0.31100
N45         N  0.97562422  0.21004403  0.19422687     0.13900
H46         H  0.05808765  0.21434282  0.20007989     0.16500
C47         C  0.93410822  0.22397278  0.20715057    -0.31100
H48         H  0.89427835  0.21590948  0.20361447     0.16500
H49         H  0.90638428  0.21555581  0.29838564     0.16500
H50         H  0.06471176  0.35130659  0.24688603     0.16600
H51         H  0.07056497  0.21760878  0.29268663     0.16500
C52         C  0.06638005  0.73183029  0.24629655     0.30400
C53         C  0.96010201  0.74107821  0.24765349     0.30400
C54         C  0.03357833  0.69648618  0.24477912    -0.05800
C55         C  0.04427484  0.75145946  0.27067396    -0.06600
C56         C  0.04291930  0.75623756  0.22471079    -0.06400
C57         C  0.97977733  0.70080482  0.24606106    -0.05800
C58         C  0.99026159  0.75467872  0.27203632    -0.06600
C59         C  0.98911992  0.75996887  0.22521293    -0.06400
C60         C  0.95896234  0.66563215  0.24747834    -0.31800
N61         N  0.99822572  0.64059213  0.24588471     0.14700
C62         C  0.04382905  0.65928421  0.24422079    -0.31800
H63         H  0.08186034  0.64666191  0.24339368     0.16600
C64         C  0.97931716  0.77282771  0.29517240    -0.30800
N65         N  0.02462545  0.78352122  0.30629008     0.13400
C66         C  0.06450842  0.77112867  0.29141777    -0.30800
C67         C  0.97532580  0.78391968  0.20563871    -0.31100
N68         N  0.01930216  0.79561502  0.19378532     0.13900
H69         H  0.93650788  0.79244495  0.20046156     0.16500
C70         C  0.06073200  0.78006462  0.20565733    -0.31100
H71         H  0.10078813  0.78589584  0.20058872     0.16500
H72         H  0.10506936  0.77696424  0.29507841     0.16500
H73         H  0.91834399  0.65873037  0.24985301     0.16600
H74         H  0.94131101  0.77975255  0.30275166     0.16500
C75         C  0.56502794  0.76483921  0.25283698     0.30400
C76         C  0.45819997  0.75982426  0.25330083     0.30400
C77         C  0.53524538  0.80204480  0.25211474    -0.05800
C78         C  0.54030783  0.74375083  0.23017395    -0.06600
C79         C  0.54010947  0.74716337  0.27748327    -0.06400
C80         C  0.48079816  0.79958418  0.25162005    -0.05800
C81         C  0.48653973  0.74178485  0.22991702    -0.06600
C82         C  0.48629994  0.74422709  0.27721099    -0.06400
C83         C  0.46254404  0.83527961  0.24871048    -0.31800
N84         N  0.50332012  0.85919283  0.24891478     0.14700
C85         C  0.54758169  0.83906478  0.25129260    -0.31800
H86         H  0.58628670  0.85061990  0.25188658     0.16600
C87         C  0.47312306  0.72379093  0.20703203    -0.30800
N88         N  0.51730257  0.71379618  0.19434268     0.13400
C89         C  0.55855971  0.72602840  0.20816056    -0.30800
C90         C  0.47106827  0.72676604  0.29988195    -0.31100
N91         N  0.51393882  0.71915176  0.31413801     0.13900
H92         H  0.43186763  0.71904302  0.30525487     0.16500
C93         C  0.55614638  0.73229174  0.30114418    -0.31100
H94         H  0.59568017  0.72982272  0.30803535     0.16500
H95         H  0.59881642  0.72196630  0.20268312     0.16500
H96         H  0.42239706  0.84339453  0.24660423     0.16600
H97         H  0.43431555  0.71755847  0.20034492     0.16500
C98         C  0.42761193  0.23332732  0.25138923     0.30400
C99         C  0.53458783  0.23331816  0.25539427     0.30400
C100        C  0.45377355  0.19460671  0.25138937    -0.05800
C101        C  0.45779710  0.25098194  0.22853719    -0.06600
C102        C  0.45073892  0.25130127  0.27576312    -0.06400
C103        C  0.50851519  0.19457265  0.25331421    -0.05800
C104        C  0.51162089  0.25159220  0.23066082    -0.06600
C105        C  0.50419742  0.25085019  0.27791628    -0.06400
C106        C  0.52424552  0.15868655  0.24851590    -0.31800
N107        N  0.48188699  0.13683418  0.24529377     0.14700
C108        C  0.43898995  0.15870394  0.24585713    -0.31800
H109        H  0.39996614  0.14912702  0.24211203     0.16600
C110        C  0.53053042  0.26737069  0.20785204    -0.30800
N111        N  0.48971355  0.27625403  0.19227435     0.13400
C112        C  0.44546203  0.26512779  0.20426599    -0.30800
C113        C  0.51673628  0.26891452  0.30074194    -0.31100
N114        N  0.47225735  0.28091644  0.31207160     0.13900
H115        H  0.55539558  0.27435462  0.30804305     0.16500
C116        C  0.43155354  0.27008115  0.29716115    -0.31100
H117        H  0.39125135  0.27641750  0.30119863     0.16500
H118        H  0.40693032  0.26817755  0.19615314     0.16500
H119        H  0.56381352  0.14900193  0.24686840     0.16600
H120        H  0.57086025  0.27237232  0.20301709     0.16500
C121        C  0.48260167  0.09691457  0.24371620     0.01700
C122        C  0.51085485  0.07875493  0.22380493     0.04600
C123        C  0.51572018  0.03992745  0.22389989    -0.11500
C124        C  0.48969898  0.01859393  0.24299536     0.23900
C125        C  0.45957717  0.03666300  0.26218233    -0.12100
C126        C  0.45774325  0.07546084  0.26313983     0.05300
C127        C  0.49495976  0.97739122  0.24364222     0.27700
C128        C  0.46796081  0.95507586  0.22560001    -0.12800
C129        C  0.47240334  0.91628120  0.22662233     0.05800
C130        C  0.50046106  0.89909240  0.24705301    -0.08700
C131        C  0.52609991  0.92160272  0.26560243     0.06600
C132        C  0.52507276  0.96034333  0.26325076    -0.13100
Br133      Br  0.42100576  0.00802498  0.28746030    -0.05200
Br134      Br  0.54167420  0.10715527  0.19599393     0.00500
Br135      Br  0.44261224  0.88709720  0.19894355     0.00900
Br136      Br  0.56497715  0.99031663  0.28707773    -0.03500
Br137      Br  0.42541742  0.09883512  0.29272699     0.01000
Br138      Br  0.55960040  0.01601670  0.19843853    -0.02800
Br139      Br  0.42336829  0.97776855  0.19997456    -0.03600
Br140      Br  0.55952776  0.89980820  0.29556755     0.00300
C141        C  0.90116652  0.74862913  0.24624490     0.01700
C142        C  0.87881032  0.78072572  0.25758833     0.04600
C143        C  0.82468161  0.78360525  0.26037969    -0.11500
C144        C  0.79225394  0.75890825  0.24708039     0.23900
C145        C  0.81442087  0.73283315  0.22999706    -0.12100
C146        C  0.86873718  0.72850359  0.22890716     0.05300
C147        C  0.73494393  0.76207659  0.24907144     0.27700
C148        C  0.70725055  0.73497449  0.26271372    -0.12800
C149        C  0.65303852  0.73365727  0.26086774     0.05800
C150        C  0.62485339  0.76411760  0.25075582    -0.08700
C151        C  0.65286895  0.78798530  0.23366572     0.06600
C152        C  0.70774983  0.78757011  0.23350973    -0.13100
Br153      Br  0.77007059  0.70435617  0.20719293    -0.05200
Br154      Br  0.91728984  0.82620738  0.25984253     0.00500
Br155      Br  0.62260544  0.68510762  0.26218971     0.00900
Br156      Br  0.74607252  0.81941805  0.21013555    -0.03500
Br157      Br  0.89730014  0.70233546  0.19934044     0.01000
Br158      Br  0.79507077  0.82249976  0.28136791    -0.02800
Br159      Br  0.74393482  0.69725560  0.28186199    -0.03600
Br160      Br  0.61885390  0.81355887  0.20528109     0.00300
C161        C  0.12549019  0.72535420  0.24629844     0.01700
C162        C  0.15219300  0.71599904  0.26964142     0.04600
C163        C  0.20629386  0.72091885  0.27120190    -0.11500
C164        C  0.23416659  0.73348265  0.24921353     0.23900
C165        C  0.20906541  0.73549680  0.22484100    -0.12100
C166        C  0.15555106  0.72824226  0.22316205     0.05300
C167        C  0.29087170  0.74011444  0.25118898     0.27700
C168        C  0.30986647  0.77264780  0.26269808    -0.12800
C169        C  0.36375824  0.77770007  0.26600814     0.05800
C170        C  0.39920614  0.75244665  0.25462231    -0.08700
C171        C  0.37918918  0.71690796  0.24843186     0.06600
C172        C  0.32561393  0.71164007  0.24502308    -0.13100
Br173      Br  0.24798889  0.74770631  0.19375271    -0.05200
Br174      Br  0.11701698  0.69234961  0.29851263     0.00500
Br175      Br  0.38588417  0.81088965  0.29331311     0.00900
Br176      Br  0.29938953  0.66465571  0.23310682    -0.03500
Br177      Br  0.12820979  0.71134815  0.19009589     0.01000
Br178      Br  0.24258735  0.70998995  0.30330578    -0.02800
Br179      Br  0.26172252  0.80947321  0.27506155    -0.03600
Br180      Br  0.42166258  0.67316471  0.25067350     0.00300
C181        C  0.59378546  0.23931875  0.25872155     0.01700
C182        C  0.61525905  0.27536761  0.25571498     0.04600
C183        C  0.66936953  0.28065639  0.25516481    -0.11500
C184        C  0.70298380  0.25052769  0.25806490     0.23900
C185        C  0.68221048  0.21611536  0.26524521    -0.12100
C186        C  0.62797303  0.21158451  0.26784778     0.05300
C187        C  0.76012184  0.25646602  0.25599349     0.27700
C188        C  0.78318268  0.26222517  0.23127852    -0.12800
C189        C  0.83636634  0.27099751  0.22937174     0.05800
C190        C  0.86827000  0.26960869  0.25191363    -0.08700
C191        C  0.84289106  0.27166274  0.27651994     0.06600
C192        C  0.78971716  0.26301032  0.27868114    -0.13100
Br193      Br  0.72817293  0.17566585  0.27283532    -0.05200
Br194      Br  0.57254743  0.31915452  0.25606294     0.00500
Br195      Br  0.86124527  0.29357972  0.19745940     0.00900
Br196      Br  0.75681076  0.26192037  0.31266647    -0.03500
Br197      Br  0.60433645  0.17559960  0.29292665     0.01000
Br198      Br  0.69809280  0.32965434  0.25156106    -0.02800
Br199      Br  0.74137919  0.25937543  0.20003824    -0.03600
Br200      Br  0.87652894  0.29479043  0.30594589     0.00300
C201        C  0.09458511  0.27015036  0.24592360     0.01700
C202        C  0.12267917  0.26556363  0.22231408     0.04600
C203        C  0.17502585  0.25501173  0.22303317    -0.11500
C204        C  0.20246584  0.25693136  0.24669637     0.23900
C205        C  0.17754313  0.27081442  0.26921836    -0.12100
C206        C  0.12369244  0.27754134  0.26892605     0.05300
C207        C  0.25915510  0.25001088  0.24706796     0.27700
C208        C  0.27894417  0.21755943  0.25812103    -0.12800
C209        C  0.33288552  0.21329761  0.26157398     0.05800
C210        C  0.36812296  0.23898735  0.25045585    -0.08700
C211        C  0.34701427  0.27386680  0.24297736     0.06600
C212        C  0.29319508  0.27843219  0.23997978    -0.13100
Br213      Br  0.21781368  0.28172589  0.30011232    -0.05200
Br214      Br  0.09729065  0.28662465  0.19014516     0.00500
Br215      Br  0.35461040  0.18054670  0.28896991     0.00900
Br216      Br  0.26533109  0.32466977  0.22744495    -0.03500
Br217      Br  0.09215935  0.30050732  0.29924412     0.01000
Br218      Br  0.20951936  0.23932707  0.19139871    -0.02800
Br219      Br  0.23150091  0.17982243  0.26983603    -0.03600
Br220      Br  0.38821300  0.31847878  0.24202975     0.00300
C221        C  0.99332136  0.60092128  0.24671038     0.01700
C222        C  0.96489679  0.58186204  0.22735243     0.04600
C223        C  0.96161227  0.54310102  0.22787837    -0.11500
C224        C  0.98973209  0.52285597  0.24665954     0.23900
C225        C  0.01957671  0.54178805  0.26543929    -0.12100
C226        C  0.01927717  0.58053143  0.26620608     0.05300
C227        C  0.98756012  0.48178985  0.24689092     0.27700
C228        C  0.95980857  0.46321019  0.26674648    -0.12800
C229        C  0.95929927  0.42444796  0.26754870     0.05800
C230        C  0.98362035  0.40385139  0.24756167    -0.08700
C231        C  0.01036453  0.42249667  0.22733925     0.06600
C232        C  0.01372713  0.46121461  0.22749445    -0.13100
Br233      Br  0.06232886  0.51458549  0.28964576    -0.05200
Br234      Br  0.93304551  0.60835784  0.19910058     0.00500
Br235      Br  0.92847995  0.39965561  0.29709950     0.00900
Br236      Br  0.05533790  0.48610151  0.20147089    -0.03500
Br237      Br  0.05150028  0.60550531  0.29510273     0.01000
Br238      Br  0.91863404  0.51762228  0.20279109    -0.02800
Br239      Br  0.92231970  0.49093449  0.29291747    -0.03600
Br240      Br  0.04048230  0.39524182  0.19865800     0.00300
C241        C  0.02124363  0.92889474  0.43868302     0.01700
C242        C  0.97828157  0.90613935  0.43212467     0.04600
C243        C  0.97999460  0.88364084  0.40965229    -0.11500
C244        C  0.02553642  0.88152161  0.39444450     0.23900
C245        C  0.06869289  0.90341316  0.40104944    -0.12100
C246        C  0.06613203  0.92783253  0.42248486     0.05300
C247        C  0.02789542  0.85620326  0.37150693     0.27700
C248        C  0.03227749  0.81781261  0.37534156    -0.12800
C249        C  0.03183086  0.79381545  0.35369139     0.05800
C250        C  0.02891450  0.80802506  0.32820381    -0.08700
C251        C  0.02763425  0.84631286  0.32424748     0.06600
C252        C  0.02521575  0.87035225  0.34581506    -0.13100
Br253      Br  0.13154764  0.89994056  0.38045250    -0.05200
Br254      Br  0.91712622  0.90367014  0.45410501     0.00500
Br255      Br  0.03512317  0.74133797  0.35847626     0.00900
Br256      Br  0.01598832  0.92243714  0.34013806    -0.03500
Br257      Br  0.12341422  0.96139927  0.42781624     0.01000
Br258      Br  0.91928602  0.85607085  0.39915057    -0.02800
Br259      Br  0.03828410  0.79807902  0.41022912    -0.03600
Br260      Br  0.03071266  0.86551159  0.28917923     0.00300
C261        C  0.02107497  0.81724122  0.17050148     0.01700
C262        C  0.02459584  0.85570460  0.17212014     0.04600
C263        C  0.02547880  0.87683113  0.14911572    -0.11500
C264        C  0.02129697  0.85932050  0.12456173     0.23900
C265        C  0.01813138  0.82067999  0.12301565    -0.12100
C266        C  0.01837028  0.79968270  0.14603895     0.05300
C267        C  0.01913566  0.88166035  0.10043997     0.27700
C268        C  0.97215866  0.89822920  0.09302763    -0.12800
C269        C  0.97042874  0.92146010  0.07106011     0.05800
C270        C  0.01572570  0.92701745  0.05558778    -0.08700
C271        C  0.06255715  0.90901644  0.06280388     0.06600
C272        C  0.06417275  0.88692635  0.08537175    -0.13100
Br273      Br  0.01323060  0.79666552  0.08943168    -0.05200
Br274      Br  0.02719312  0.87886941  0.20597782     0.00500
Br275      Br  0.90621935  0.94740448  0.06427939     0.00900
Br276      Br  0.12840402  0.86406787  0.09618087    -0.03500
Br277      Br  0.01439960  0.74678850  0.14449086     0.01000
Br278      Br  0.03285868  0.92959321  0.15108580    -0.02800
Br279      Br  0.91021424  0.88932802  0.11354592    -0.03600
Br280      Br  0.12521227  0.91322883  0.04205640     0.00300
C281        C  0.00746666  0.07680422  0.43997421     0.01700
C282        C  0.96808200  0.07242486  0.42093414     0.04600
C283        C  0.96667565  0.09562372  0.39897978    -0.11500
C284        C  0.00647967  0.12148390  0.39480804     0.23900
C285        C  0.04663647  0.12531211  0.41327935    -0.12100
C286        C  0.04640721  0.10377627  0.43618059     0.05300
C287        C  0.00499183  0.14507245  0.37116272     0.27700
C288        C  0.01922449  0.13057288  0.34654589    -0.12800
C289        C  0.01298252  0.15197544  0.32382478     0.05800
C290        C  0.99397794  0.18818946  0.32573121    -0.08700
C291        C  0.98185156  0.20310299  0.35045137     0.06600
C292        C  0.98627321  0.18138201  0.37306787    -0.13100
Br293      Br  0.10211486  0.15994644  0.40698537    -0.05200
Br294      Br  0.91816789  0.03276995  0.42318259     0.00500
Br295      Br  0.02877489  0.13164345  0.28990573     0.00900
Br296      Br  0.96569572  0.20103671  0.40664591    -0.03500
Br297      Br  0.09839183  0.11267830  0.46264703     0.01000
Br298      Br  0.90980873  0.09225020  0.37449160    -0.02800
Br299      Br  0.04682754  0.08133253  0.34404964    -0.03600
Br300      Br  0.96175922  0.25389792  0.35344248     0.00300
C301        C  0.97450969  0.18765303  0.17112064     0.01700
C302        C  0.98791749  0.20333204  0.14684611     0.04600
C303        C  0.99372093  0.18093153  0.12463069    -0.11500
C304        C  0.98340527  0.14293521  0.12631921     0.23900
C305        C  0.96717151  0.12753529  0.15035300    -0.12100
C306        C  0.96353113  0.14986655  0.17283426     0.05300
C307        C  0.98968576  0.11940741  0.10274656     0.27700
C308        C  0.95042910  0.11842315  0.08367884    -0.12800
C309        C  0.95701633  0.09728756  0.06081329     0.05800
C310        C  0.00224925  0.07559462  0.05731517    -0.08700
C311        C  0.04168589  0.07674570  0.07663379     0.06600
C312        C  0.03566348  0.09913777  0.09897962    -0.13100
Br313      Br  0.95045966  0.07592188  0.15242996    -0.05200
Br314      Br  0.99661239  0.25582086  0.14407807     0.00500
Br315      Br  0.90461569  0.10004344  0.03387814     0.00900
Br316      Br  0.09041541  0.10233410  0.12465937    -0.03500
Br317      Br  0.94526044  0.12905550  0.20624242     0.01000
Br318      Br  0.01715636  0.20205546  0.09202896    -0.02800
Br319      Br  0.88736384  0.14618462  0.08912498    -0.03600
Br320      Br  0.10287675  0.04622113  0.07388427     0.00300
C321        C  0.51460409  0.69617379  0.33703851     0.01700
C322        C  0.52268492  0.65802170  0.33448057     0.04600
C323        C  0.52262863  0.63526182  0.35673119    -0.11500
C324        C  0.51110212  0.65016799  0.38156253     0.23900
C325        C  0.50111503  0.68823272  0.38401344    -0.12100
C326        C  0.50403035  0.71125707  0.36183056     0.05300
C327        C  0.50816982  0.62534593  0.40472996     0.27700
C328        C  0.46448702  0.60255153  0.40828622    -0.12800
C329        C  0.46365330  0.57627160  0.42852978     0.05800
C330        C  0.50546389  0.57390422  0.44643363    -0.08700
C331        C  0.54890049  0.59734891  0.44306895     0.06600
C332        C  0.55044408  0.62254350  0.42206728    -0.13100
Br333      Br  0.48176198  0.70846878  0.41751334    -0.05200
Br334      Br  0.53035928  0.63667244  0.30024876     0.00500
Br335      Br  0.40700791  0.54136331  0.42976254     0.00900
Br336      Br  0.61108993  0.65277620  0.41649036    -0.03500
Br337      Br  0.49291448  0.76344736  0.36488330     0.01000
Br338      Br  0.53795645  0.58347685  0.35321049    -0.02800
Br339      Br  0.40597945  0.60701192  0.38491150    -0.03600
Br340      Br  0.60616128  0.59600061  0.46736846     0.00300
C341        C  0.51995688  0.69092516  0.17150375     0.01700
C342        C  0.52841673  0.70663855  0.14673000     0.04600
C343        C  0.52953743  0.68412799  0.12429966    -0.11500
C344        C  0.52017921  0.64601167  0.12660483     0.23900
C345        C  0.51278029  0.63025244  0.15155030    -0.12100
C346        C  0.51444668  0.65259487  0.17397314     0.05300
C347        C  0.51888971  0.62230600  0.10294932     0.27700
C348        C  0.47470442  0.62191791  0.08682714    -0.12800
C349        C  0.47311648  0.59890662  0.06469612     0.05800
C350        C  0.51352684  0.57322544  0.06002799    -0.08700
C351        C  0.55848786  0.57435319  0.07606142     0.06600
C352        C  0.56161251  0.59975584  0.09683058    -0.13100
Br353      Br  0.49993820  0.57814058  0.15500897    -0.05200
Br354      Br  0.53881536  0.75892328  0.14391705     0.00500
Br355      Br  0.41740635  0.60547177  0.03983797     0.00900
Br356      Br  0.62446700  0.60390440  0.11720204    -0.03500
Br357      Br  0.51276261  0.63074077  0.20823156     0.01000
Br358      Br  0.54483303  0.70515508  0.09051038    -0.02800
Br359      Br  0.41568901  0.65239551  0.09550849    -0.03600
Br360      Br  0.61561482  0.54054666  0.07107280     0.00300
C361        C  0.48342265  0.42402694  0.44433662     0.01700
C362        C  0.52507199  0.42040201  0.42627831     0.04600
C363        C  0.52068158  0.39630476  0.40489123    -0.11500
C364        C  0.47450370  0.37651252  0.40090364     0.23900
C365        C  0.43259387  0.38049914  0.41832305    -0.12100
C366        C  0.43715461  0.40368824  0.44025202     0.05300
C367        C  0.47044470  0.35126922  0.37832651     0.27700
C368        C  0.45569374  0.36501758  0.35371009    -0.12800
C369        C  0.45592717  0.34164685  0.33182457     0.05800
C370        C  0.46966640  0.30432922  0.33461700    -0.08700
C371        C  0.48362179  0.29051190  0.35932123     0.06600
C372        C  0.48411564  0.31396741  0.38119014    -0.13100
Br373      Br  0.36887325  0.35405425  0.41181872    -0.05200
Br374      Br  0.58758178  0.44964600  0.42928581     0.00500
Br375      Br  0.44151761  0.36145386  0.29774785     0.00900
Br376      Br  0.50453495  0.29543520  0.41499385    -0.03500
Br377      Br  0.38044332  0.40550702  0.46505615     0.01000
Br378      Br  0.57783168  0.39041407  0.38064033    -0.02800
Br379      Br  0.43653288  0.41611168  0.34999678    -0.03600
Br380      Br  0.50231412  0.23946032  0.36289843     0.00300
C381        C  0.48641952  0.41599145  0.05743594     0.01700
C382        C  0.52475809  0.38804954  0.05876904     0.04600
C383        C  0.52429461  0.36236559  0.07944577    -0.11500
C384        C  0.48382955  0.36271795  0.09800348     0.23900
C385        C  0.44291751  0.38815280  0.09534566    -0.12100
C386        C  0.44475711  0.41533617  0.07567637     0.05300
C387        C  0.48716109  0.33944354  0.12194355     0.27700
C388        C  0.47386399  0.30175600  0.12141708    -0.12800
C389        C  0.47692978  0.28053371  0.14448674     0.05800
C390        C  0.49155796  0.29705638  0.16829417    -0.08700
C391        C  0.50386860  0.33485111  0.16881016     0.06600
C392        C  0.50306813  0.35570451  0.14565430    -0.13100
Br393      Br  0.38519727  0.38635315  0.11955470    -0.05200
Br394      Br  0.57694387  0.38326737  0.03176032     0.00500
Br395      Br  0.46146597  0.22869371  0.14381110     0.00900
Br396      Br  0.52329259  0.40693307  0.14640921    -0.03500
Br397      Br  0.39174280  0.45297970  0.07563131     0.01000
Br398      Br  0.58043358  0.32756579  0.08313578    -0.02800
Br399      Br  0.45028773  0.27954045  0.08932377    -0.03600
Br400      Br  0.51757013  0.35902948  0.20148534     0.00300
O401        O  0.54296317  0.52778801  0.97447607    -0.71400
O402        O  0.53424710  0.45869536  0.53050772    -0.71600
O403        O  0.53094823  0.45468531  0.97807150    -0.71400
O404        O  0.54677854  0.53232645  0.52699618    -0.71500
O405        O  0.46352900  0.53271469  0.53279081    -0.71400
O406        O  0.44934178  0.46816760  0.97473741    -0.71400
O407        O  0.45050005  0.45958140  0.52701120    -0.71400
O408        O  0.46163005  0.54070568  0.98042363    -0.71600
V409        V  0.53744957  0.49348670  0.00260145     1.35200
V410        V  0.45757252  0.50019357  0.50380103     1.35200
C411        C  0.50353051  0.54658355  0.96815519     0.77900
C412        C  0.49054664  0.44592824  0.53747363     0.77900
C413        C  0.48792783  0.44975385  0.96677752     0.77800
C414        C  0.50779466  0.54501928  0.53903593     0.77800
O415        O  0.96658955  0.03279589  0.52668701    -0.71400
O416        O  0.97511768  0.96853970  0.96831757    -0.71600
O417        O  0.97369071  0.96000432  0.52076959    -0.71400
O418        O  0.96854468  0.04120505  0.97418526    -0.71500
O419        O  0.05227575  0.03819016  0.97022771    -0.71400
O420        O  0.05532740  0.97079485  0.52673080    -0.71400
O421        O  0.05814542  0.96495127  0.97388392    -0.71400
O422        O  0.04898988  0.04375653  0.52311513    -0.71600
V423        V  0.97227747  0.00071952  0.49752830     1.35200
V424        V  0.05248364  0.00436725  0.49845591     1.35200
C425        C  0.00623139  0.04998063  0.53461238     0.77900
C426        C  0.01812257  0.95492590  0.96136243     0.77900
C427        C  0.01496137  0.95328654  0.53323613     0.77800
C428        C  0.00956846  0.05153851  0.96267847     0.77800
C429        C  0.92803014  0.26819501  0.74986278     0.30400
C430        C  0.03492563  0.26831308  0.74669455     0.30400
C431        C  0.95465652  0.30606672  0.74948897    -0.05800
C432        C  0.95728836  0.24725457  0.77181131    -0.06600
C433        C  0.95169971  0.24889146  0.72561848    -0.06400
C434        C  0.00849082  0.30591151  0.74813897    -0.04000
C435        C  0.01140613  0.24751311  0.77003261    -0.06600
C436        C  0.00605914  0.24895111  0.72406263    -0.06400
C437        C  0.02484160  0.34191408  0.74771111    -0.31800
N438        N  0.98247975  0.36413084  0.74819902     0.14700
C439        C  0.93932807  0.34247494  0.74918157    -0.31800
H440        H  0.89975956  0.35247928  0.74936309     0.16600
C441        C  0.03024573  0.22430159  0.78903860    -0.30800
N442        N  0.98961056  0.21061366  0.80271907     0.13400
C443        C  0.94487656  0.22338570  0.79200253    -0.30800
C444        C  0.01942429  0.22340801  0.70523298    -0.31100
N445        N  0.97562374  0.21004570  0.69422525     0.13900
H446        H  0.05808714  0.21434573  0.70007791     0.16500
C447        C  0.93410752  0.22397347  0.70714934    -0.31100
H448        H  0.89427792  0.21590953  0.70361343     0.16500
H449        H  0.90638512  0.21555525  0.79838526     0.16500
H450        H  0.06470801  0.35130833  0.74688549     0.16600
H451        H  0.07056567  0.21760986  0.79268540     0.16500
C452        C  0.06637626  0.73183153  0.74629699     0.30400
C453        C  0.96009822  0.74107925  0.74765460     0.30400
C454        C  0.03357456  0.69648728  0.74478045    -0.05800
C455        C  0.04427166  0.75146156  0.77067416    -0.06600
C456        C  0.04291441  0.75623797  0.72471112    -0.06400
C457        C  0.97977361  0.70080583  0.74606270    -0.05800
C458        C  0.99025842  0.75468098  0.77203690    -0.06600
C459        C  0.98911500  0.75996933  0.72521344    -0.06400
C460        C  0.95895876  0.66563305  0.74747984    -0.31800
N461        N  0.99822229  0.64059308  0.74588608     0.14700
C462        C  0.04382541  0.65928531  0.74422202    -0.31800
H463        H  0.08185690  0.64666304  0.74339445     0.16600
C464        C  0.97931520  0.77283158  0.79517248    -0.30800
N465        N  0.02462388  0.78352559  0.80628939     0.13400
C466        C  0.06450633  0.77113175  0.79141720    -0.30800
C467        C  0.97532206  0.78392134  0.70564020    -0.31100
N468        N  0.01929591  0.79561783  0.69378723     0.13900
H469        H  0.93649955  0.79244813  0.70046312     0.16500
C470        C  0.06072828  0.78006678  0.70565863    -0.31100
H471        H  0.10077946  0.78589862  0.70059110     0.16500
H472        H  0.10506726  0.77696709  0.79507734     0.16500
H473        H  0.91834055  0.65873114  0.74985425     0.16600
H474        H  0.94130909  0.77975702  0.80275207     0.16500
C475        C  0.56502354  0.76483868  0.75283851     0.30400
C476        C  0.45819554  0.75982506  0.75330250     0.30400
C477        C  0.53524183  0.80204473  0.75211601    -0.05800
C478        C  0.54030274  0.74375025  0.73017562    -0.06600
C479        C  0.54010479  0.74716337  0.77748498    -0.06400
C480        C  0.48079456  0.79958475  0.75162136    -0.05800
C481        C  0.48653465  0.74178492  0.72991877    -0.06600
C482        C  0.48629521  0.74422797  0.77721277    -0.06400
C483        C  0.46254129  0.83528036  0.74871138    -0.31800
N484        N  0.50331782  0.85919320  0.74891538     0.14700
C485        C  0.54757893  0.83906465  0.75129348    -0.31800
H486        H  0.58628422  0.85061937  0.75188727     0.16600
C487        C  0.47311726  0.72379100  0.70703382    -0.30800
N488        N  0.51729640  0.71379569  0.69434438     0.13400
C489        C  0.55855401  0.72602747  0.70816219    -0.30800
C490        C  0.47106291  0.72676716  0.79988373    -0.31100
N491        N  0.51393312  0.71915192  0.81413974     0.13900
H492        H  0.43186204  0.71904481  0.80525660     0.16500
C493        C  0.55614122  0.73229105  0.80114585    -0.31100
H494        H  0.59567493  0.72982096  0.80803690     0.16500
H495        H  0.59881033  0.72196509  0.70268463     0.16500
H496        H  0.42239436  0.84339566  0.74660494     0.16600
H497        H  0.43430956  0.71755915  0.70034676     0.16500
C498        C  0.42761074  0.23332847  0.75138711     0.30400
C499        C  0.53458635  0.23331878  0.75539394     0.30400
C500        C  0.45377189  0.19460764  0.75138773    -0.05800
C501        C  0.45779753  0.25098286  0.72853557    -0.06600
C502        C  0.45073633  0.25130236  0.77576136    -0.06400
C503        C  0.50851341  0.19457333  0.75331349    -0.05800
C504        C  0.51162115  0.25159293  0.73066008    -0.06600
C505        C  0.50419468  0.25085102  0.77791548    -0.06400
C506        C  0.52424367  0.15868712  0.74851541    -0.31800
N507        N  0.48188517  0.13683487  0.74529253     0.14700
C508        C  0.43898836  0.15870488  0.74585522    -0.31800
H509        H  0.39996459  0.14912812  0.74210941     0.16600
C510        C  0.53053218  0.26737130  0.70785155    -0.30800
N511        N  0.48971629  0.27625468  0.69227315     0.13400
C512        C  0.44546403  0.26512862  0.70426417    -0.30800
C513        C  0.51673189  0.26891503  0.80074152    -0.31100
N514        N  0.47225231  0.28091700  0.81207044     0.13900
H515        H  0.55539093  0.27435479  0.80804351     0.16500
C516        C  0.43154949  0.27008202  0.79715914    -0.31100
H517        H  0.39124711  0.27641825  0.80119598     0.16500
H518        H  0.40693275  0.26817862  0.69615080     0.16500
H519        H  0.56381168  0.14900237  0.74686853     0.16600
H520        H  0.57086231  0.27237286  0.70301726     0.16500
C521        C  0.48259978  0.09691519  0.74371470     0.01700
C522        C  0.51085527  0.07875569  0.72380413     0.04600
C523        C  0.51572044  0.03992817  0.72389901    -0.11500
C524        C  0.48969734  0.01859442  0.74299370     0.23900
C525        C  0.45957316  0.03666327  0.76217984    -0.12100
C526        C  0.45773878  0.07546114  0.76313740     0.05300
C527        C  0.49495870  0.97739170  0.74364080     0.27700
C528        C  0.46796037  0.95507583  0.72559867    -0.12800
C529        C  0.47240259  0.91628114  0.72662166     0.05800
C530        C  0.50045962  0.89909282  0.74705279    -0.08700
C531        C  0.52609851  0.92160368  0.76560186     0.06600
C532        C  0.52507126  0.96034428  0.76324971    -0.13100
Br533      Br  0.42099907  0.00802481  0.78745659    -0.05200
Br534      Br  0.54167737  0.10715612  0.69599388     0.00500
Br535      Br  0.44261194  0.88709638  0.69894322     0.00900
Br536      Br  0.56497493  0.99031830  0.78707648    -0.03500
Br537      Br  0.42540830  0.09883487  0.79272352     0.01000
Br538      Br  0.55960287  0.01601756  0.69843859    -0.02800
Br539      Br  0.42336882  0.97776782  0.69997248    -0.03600
Br540      Br  0.55952674  0.89980989  0.79556710     0.00300
C541        C  0.90116249  0.74862965  0.74624621     0.01700
C542        C  0.87880557  0.78072569  0.75758996     0.04600
C543        C  0.82467684  0.78360415  0.76038176    -0.11500
C544        C  0.79224966  0.75890699  0.74708225     0.23900
C545        C  0.81441716  0.73283269  0.72999847    -0.12100
C546        C  0.86873358  0.72850395  0.72890838     0.05300
C547        C  0.73493954  0.76207503  0.74907308     0.27700
C548        C  0.70724585  0.73497230  0.76271458    -0.12800
C549        C  0.65303369  0.73365569  0.76086882     0.05800
C550        C  0.62484899  0.76411646  0.75075727    -0.08700
C551        C  0.65286485  0.78798417  0.73366737     0.06600
C552        C  0.70774571  0.78756915  0.73351173    -0.13100
Br553      Br  0.77006761  0.70435568  0.70719400    -0.05200
Br554      Br  0.91728285  0.82620843  0.75984262     0.00500
Br555      Br  0.62259931  0.68510653  0.76219077     0.00900
Br556      Br  0.74606871  0.81941782  0.71013818    -0.03500
Br557      Br  0.89729715  0.70233658  0.69934148     0.01000
Br558      Br  0.79506541  0.82249785  0.78137053    -0.02800
Br559      Br  0.74392991  0.69725178  0.78186134    -0.03600
Br560      Br  0.61885020  0.81355702  0.70528231     0.00300
C561        C  0.12548630  0.72535546  0.74629894     0.01700
C562        C  0.15218825  0.71599866  0.76964187     0.04600
C563        C  0.20628909  0.72091805  0.77120299    -0.11500
C564        C  0.23416253  0.73348387  0.74921548     0.23900
C565        C  0.20906233  0.73550040  0.72484285    -0.12100
C566        C  0.15554812  0.72824582  0.72316298     0.05300
C567        C  0.29086751  0.74011531  0.75119157     0.27700
C568        C  0.30986229  0.77264886  0.76270031    -0.12800
C569        C  0.36375411  0.77770136  0.76600993     0.05800
C570        C  0.39920179  0.75244766  0.75462423    -0.08700
C571        C  0.37918476  0.71690871  0.74843443     0.06600
C572        C  0.32560952  0.71164077  0.74502592    -0.13100
Br573      Br  0.24798738  0.74771293  0.69375568    -0.05200
Br574      Br  0.11701049  0.69234968  0.79851273     0.00500
Br575      Br  0.38588047  0.81089191  0.79331418     0.00900
Br576      Br  0.29938462  0.66465629  0.73311020    -0.03500
Br577      Br  0.12820912  0.71135368  0.69009580     0.01000
Br578      Br  0.24258172  0.70998590  0.80330652    -0.02800
Br579      Br  0.26171830  0.80947408  0.77506398    -0.03600
Br580      Br  0.42165805  0.67316535  0.75067612     0.00300
C581        C  0.59378388  0.23931921  0.75872202     0.01700
C582        C  0.61525776  0.27536804  0.75571584     0.04600
C583        C  0.66936831  0.28065662  0.75516571    -0.11500
C584        C  0.70298231  0.25052769  0.75806550     0.23900
C585        C  0.68220866  0.21611544  0.76524588    -0.12100
C586        C  0.62797111  0.21158477  0.76784825     0.05300
C587        C  0.76012040  0.25646568  0.75599375     0.27700
C588        C  0.78318069  0.26222520  0.73127866    -0.12800
C589        C  0.83636450  0.27099706  0.72937160     0.05800
C590        C  0.86826874  0.26960772  0.75191328    -0.08700
C591        C  0.84289034  0.27166150  0.77651977     0.06600
C592        C  0.78971643  0.26300925  0.77868127    -0.13100
Br593      Br  0.72817072  0.17566589  0.77283654    -0.05200
Br594      Br  0.57254641  0.31915505  0.75606421     0.00500
Br595      Br  0.86124271  0.29357976  0.69745929     0.00900
Br596      Br  0.75681094  0.26191877  0.81266688    -0.03500
Br597      Br  0.60433378  0.17559988  0.79292693     0.01000
Br598      Br  0.69809205  0.32965456  0.75156252    -0.02800
Br599      Br  0.74137621  0.25937708  0.70003858    -0.03600
Br600      Br  0.87652869  0.29478909  0.80594559     0.00300
C601        C  0.09458381  0.27015259  0.74592200     0.01700
C602        C  0.12267724  0.26556806  0.72231204     0.04600
C603        C  0.17502458  0.25501748  0.72303022    -0.11500
C604        C  0.20246512  0.25693548  0.74669335     0.23900
C605        C  0.17754258  0.27081640  0.76921609    -0.12100
C606        C  0.12369172  0.27754280  0.76892437     0.05300
C607        C  0.25915431  0.25001431  0.74706462     0.27700
C608        C  0.27894247  0.21756211  0.75811702    -0.12800
C609        C  0.33288356  0.21329959  0.76157040     0.05800
C610        C  0.36812194  0.23898915  0.75045286    -0.08700
C611        C  0.34701432  0.27386911  0.74297462     0.06600
C612        C  0.29319518  0.27843545  0.73997714    -0.13100
Br613      Br  0.21781341  0.28172539  0.80011041    -0.05200
Br614      Br  0.09728570  0.28662940  0.69014383     0.00500
Br615      Br  0.35460656  0.18054844  0.78896662     0.00900
Br616      Br  0.26533237  0.32467398  0.72744347    -0.03500
Br617      Br  0.09215912  0.30050760  0.79924302     0.01000
Br618      Br  0.20951790  0.23933645  0.69139475    -0.02800
Br619      Br  0.23149829  0.17982492  0.76983065    -0.03600
Br620      Br  0.38821460  0.31848044  0.74202692     0.00300
C621        C  0.99331787  0.60092215  0.74671112     0.01700
C622        C  0.96489331  0.58186355  0.72735286     0.04600
C623        C  0.96160777  0.54310256  0.72787845    -0.11500
C624        C  0.98972728  0.52285674  0.74665931     0.23900
C625        C  0.01957246  0.54178814  0.76543921    -0.12100
C626        C  0.01927342  0.58053156  0.76620653     0.05300
C627        C  0.98755434  0.48179054  0.74689033     0.27700
C628        C  0.95980280  0.46321085  0.76674590    -0.12800
C629        C  0.95929340  0.42444859  0.76754817     0.05800
C630        C  0.98361500  0.40385195  0.74756132    -0.08700
C631        C  0.01035857  0.42249724  0.72733867     0.06600
C632        C  0.01372071  0.46121524  0.72749366    -0.13100
Br633      Br  0.06232429  0.51458451  0.78964524    -0.05200
Br634      Br  0.93304402  0.60836011  0.69910085     0.00500
Br635      Br  0.92847313  0.39965625  0.79709879     0.00900
Br636      Br  0.05532990  0.48610209  0.70146943    -0.03500
Br637      Br  0.05149693  0.60550451  0.79510342     0.01000
Br638      Br  0.91862830  0.51762500  0.70279114    -0.02800
Br639      Br  0.92231394  0.49093516  0.79291682    -0.03600
Br640      Br  0.04047612  0.39524222  0.69865737     0.00300
C641        C  0.02124329  0.92889886  0.93868185     0.01700
C642        C  0.97828684  0.90613648  0.93212739     0.04600
C643        C  0.97999865  0.88363982  0.90965413    -0.11500
C644        C  0.02553630  0.88152799  0.89444249     0.23900
C645        C  0.06868834  0.90342608  0.90104423    -0.12100
C646        C  0.06612613  0.92784507  0.92247976     0.05300
C647        C  0.02789605  0.85620951  0.87150504     0.27700
C648        C  0.03228502  0.81781930  0.87533996    -0.12800
C649        C  0.03183676  0.79382153  0.85369017     0.05800
C650        C  0.02891421  0.80803028  0.82820256    -0.08700
C651        C  0.02762890  0.84631786  0.82424575     0.06600
C652        C  0.02520961  0.87035762  0.84581309    -0.13100
Br653      Br  0.13153920  0.89996257  0.88044354    -0.05200
Br654      Br  0.91714290  0.90365509  0.95411503     0.00500
Br655      Br  0.03513386  0.74134433  0.85847558     0.00900
Br656      Br  0.01597060  0.92244135  0.84013561    -0.03500
Br657      Br  0.12339652  0.96142346  0.92780618     0.01000
Br658      Br  0.91929379  0.85606260  0.89915673    -0.02800
Br659      Br  0.03830364  0.79808701  0.91022741    -0.03600
Br660      Br  0.03070229  0.86551580  0.78917719     0.00300
C661        C  0.02107030  0.81724514  0.67050402     0.01700
C662        C  0.02459358  0.85570832  0.67212362     0.04600
C663        C  0.02547854  0.87683585  0.64911970    -0.11500
C664        C  0.02129613  0.85932635  0.62456537     0.23900
C665        C  0.01812759  0.82068606  0.62301838    -0.12100
C666        C  0.01836451  0.79968778  0.64604115     0.05300
C667        C  0.01913694  0.88166702  0.60044408     0.27700
C668        C  0.97216061  0.89823614  0.59303107    -0.12800
C669        C  0.97043177  0.92146550  0.57106276     0.05800
C670        C  0.01572932  0.92702129  0.55559055    -0.08700
C671        C  0.06256072  0.90902131  0.56280805     0.06600
C672        C  0.06417498  0.88693239  0.58537650    -0.13100
Br673      Br  0.01322531  0.79667326  0.58943388    -0.05200
Br674      Br  0.02719168  0.87887143  0.70598185     0.00500
Br675      Br  0.90622304  0.94741025  0.56428086     0.00900
Br676      Br  0.12840537  0.86407421  0.59618720    -0.03500
Br677      Br  0.01439004  0.74679376  0.64449190     0.01000
Br678      Br  0.03286187  0.92959763  0.65109082    -0.02800
Br679      Br  0.91021557  0.88933764  0.61354952    -0.03600
Br680      Br  0.12521773  0.91323379  0.54206198     0.00300
C681        C  0.00746605  0.07680744  0.93997526     0.01700
C682        C  0.96808097  0.07242951  0.92093521     0.04600
C683        C  0.96667555  0.09562885  0.89898107    -0.11500
C684        C  0.00648129  0.12148761  0.89480908     0.23900
C685        C  0.04663844  0.12531446  0.91328032    -0.12100
C686        C  0.04640809  0.10377851  0.93618157     0.05300
C687        C  0.00499503  0.14507568  0.87116337     0.27700
C688        C  0.01922502  0.13057452  0.84654657    -0.12800
C689        C  0.01298267  0.15197625  0.82382506     0.05800
C690        C  0.99397998  0.18819081  0.82573089    -0.08700
C691        C  0.98185638  0.20310593  0.85045092     0.06600
C692        C  0.98627907  0.18138605  0.87306796    -0.13100
Br693      Br  0.10211891  0.15994705  0.90698622    -0.05200
Br694      Br  0.91816529  0.03277549  0.92318292     0.00500
Br695      Br  0.02877153  0.13164238  0.78990620     0.00900
Br696      Br  0.96570628  0.20104333  0.90664597    -0.03500
Br697      Br  0.09839385  0.11267889  0.96264772     0.01000
Br698      Br  0.90980718  0.09225819  0.87449359    -0.02800
Br699      Br  0.04682448  0.08133299  0.84405091    -0.03600
Br700      Br  0.96176523  0.25390125  0.85344084     0.00300
C701        C  0.97450950  0.18765471  0.67111898     0.01700
C702        C  0.98791485  0.20333426  0.64684428     0.04600
C703        C  0.99371920  0.18093397  0.62462876    -0.11500
C704        C  0.98340691  0.14293719  0.62631741     0.23900
C705        C  0.96717508  0.12753672  0.65035136    -0.12100
C706        C  0.96353406  0.14986779  0.67283271     0.05300
C707        C  0.98968869  0.11940947  0.60274472     0.27700
C708        C  0.95043204  0.11842406  0.58367706    -0.12800
C709        C  0.95702007  0.09728839  0.56081162     0.05800
C710        C  0.00225409  0.07559666  0.55731339    -0.08700
C711        C  0.04169139  0.07674952  0.57663163     0.06600
C712        C  0.03566755  0.09914113  0.59897765    -0.13100
Br713      Br  0.95046600  0.07592293  0.65242830    -0.05200
Br714      Br  0.99660557  0.25582340  0.64407622     0.00500
Br715      Br  0.90461887  0.10004266  0.53387664     0.00900
Br716      Br  0.09041878  0.10233829  0.62465770    -0.03500
Br717      Br  0.94526714  0.12905584  0.70624113     0.01000
Br718      Br  0.01715106  0.20205903  0.59202674    -0.02800
Br719      Br  0.88736541  0.14618387  0.58912314    -0.03600
Br720      Br  0.10288573  0.04622860  0.57388106     0.00300
C721        C  0.51459708  0.69617367  0.83704017     0.01700
C722        C  0.52267877  0.65802169  0.83448213     0.04600
C723        C  0.52262094  0.63526146  0.85673260    -0.11500
C724        C  0.51109114  0.65016703  0.88156374     0.23900
C725        C  0.50110196  0.68823151  0.88401462    -0.12100
C726        C  0.50401958  0.71125635  0.86183204     0.05300
C727        C  0.50815899  0.62534469  0.90473105     0.27700
C728        C  0.46447814  0.60254807  0.90828627    -0.12800
C729        C  0.46364539  0.57626785  0.92852965     0.05800
C730        C  0.50545449  0.57390253  0.94643445    -0.08700
C731        C  0.54888890  0.59734949  0.94307095     0.06600
C732        C  0.55043205  0.62254418  0.92206931    -0.13100
Br733      Br  0.48174276  0.70846658  0.91751398    -0.05200
Br734      Br  0.53035515  0.63667296  0.80025028     0.00500
Br735      Br  0.40700408  0.54135618  0.92976089     0.00900
Br736      Br  0.61107601  0.65277928  0.91649359    -0.03500
Br737      Br  0.49290179  0.76344648  0.86488493     0.01000
Br738      Br  0.53795152  0.58347687  0.85321192    -0.02800
Br739      Br  0.40597180  0.60700592  0.88491058    -0.03600
Br740      Br  0.60614668  0.59600420  0.96737225     0.00300
C741        C  0.51995030  0.69092528  0.67150506     0.01700
C742        C  0.52841065  0.70663936  0.64673157     0.04600
C743        C  0.52953326  0.68412940  0.62430096    -0.11500
C744        C  0.52017616  0.64601288  0.62660548     0.23900
C745        C  0.51277592  0.63025295  0.65155066    -0.12100
C746        C  0.51444048  0.65259487  0.67397385     0.05300
C747        C  0.51888939  0.62230780  0.60294958     0.27700
C748        C  0.47470563  0.62191967  0.58682632    -0.12800
C749        C  0.47312017  0.59890881  0.56469501     0.05800
C750        C  0.51353152  0.57322821  0.56002749    -0.08700
C751        C  0.55849118  0.57435623  0.57606183     0.06600
C752        C  0.56161334  0.59975836  0.59683143    -0.13100
Br753      Br  0.49993559  0.57814071  0.65500847    -0.05200
Br754      Br  0.53880737  0.75892427  0.64391930     0.00500
Br755      Br  0.41741190  0.60547351  0.53983573     0.00900
Br756      Br  0.62446597  0.60390720  0.61720428    -0.03500
Br757      Br  0.51275419  0.63073999  0.70823200     0.01000
Br758      Br  0.54483043  0.70515761  0.59051220    -0.02800
Br759      Br  0.41568874  0.65239637  0.59550662    -0.03600
Br760      Br  0.61561958  0.54055083  0.57107368     0.00300
C761        C  0.48341276  0.42402503  0.94433685     0.01700
C762        C  0.52506202  0.42039973  0.92627851     0.04600
C763        C  0.52067095  0.39630273  0.90489133    -0.11500
C764        C  0.47449253  0.37651116  0.90090360     0.23900
C765        C  0.43258299  0.38049788  0.91832318    -0.12100
C766        C  0.43714446  0.40368657  0.94025234     0.05300
C767        C  0.47043323  0.35126807  0.87832632     0.27700
C768        C  0.45568273  0.36501670  0.85370993    -0.12800
C769        C  0.45591872  0.34164662  0.83182404     0.05800
C770        C  0.46965946  0.30432920  0.83461611    -0.08700
C771        C  0.48361386  0.29051148  0.85932039     0.06600
C772        C  0.48410558  0.31396649  0.88118959    -0.13100
Br773      Br  0.36886178  0.35405373  0.91181880    -0.05200
Br774      Br  0.58757296  0.44964247  0.92928626     0.00500
Br775      Br  0.44151109  0.36145446  0.79774734     0.00900
Br776      Br  0.50452462  0.29543406  0.91499322    -0.03500
Br777      Br  0.38043411  0.40550463  0.96505702     0.01000
Br778      Br  0.57782093  0.39041139  0.88064043    -0.02800
Br779      Br  0.43651979  0.41611041  0.84999707    -0.03600
Br780      Br  0.50230798  0.23946016  0.86289732     0.00300
C781        C  0.48642741  0.41599447  0.55743595     0.01700
C782        C  0.52476620  0.38805271  0.55876940     0.04600
C783        C  0.52430180  0.36236852  0.57944596    -0.11500
C784        C  0.48383610  0.36272081  0.59800329     0.23900
C785        C  0.44292444  0.38815595  0.59534539    -0.12100
C786        C  0.44476464  0.41533936  0.57567615     0.05300
C787        C  0.48716662  0.33944586  0.62194307     0.27700
C788        C  0.47386711  0.30175882  0.62141617    -0.12800
C789        C  0.47693146  0.28053592  0.64448561     0.05800
C790        C  0.49156195  0.29705743  0.66829313    -0.08700
C791        C  0.50387542  0.33485174  0.66880943     0.06600
C792        C  0.50307514  0.35570578  0.64565388    -0.13100
Br793      Br  0.38520394  0.38635674  0.61955423    -0.05200
Br794      Br  0.57695400  0.38327126  0.53176157     0.00500
Br795      Br  0.46146191  0.22869678  0.64380943     0.00900
Br796      Br  0.52330130  0.40693398  0.64640929    -0.03500
Br797      Br  0.39175074  0.45298324  0.57563082     0.01000
Br798      Br  0.58043991  0.32756804  0.58313608    -0.02800
Br799      Br  0.45028939  0.27954508  0.58932251    -0.03600
Br800      Br  0.51758066  0.35902898  0.70148461     0.00300
loop_ 
_geom_bond_atom_site_label_1 
_geom_bond_atom_site_label_2 
_geom_bond_distance 
_geom_bond_site_symmetry_2 
_ccdc_geom_bond_type 
O1            V9   1.908       .  S
O1           C11   1.267       .  A
O2          V409   1.908       .  S
O2           C12   1.268       .  A
O3            V9   1.894       .  S
O3           C13   1.263       .  A
O4          V409   1.898       .  S
O4           C14   1.263       .  A
O5           V10   1.901       .  S
O5           C14   1.266       .  A
O6          V410   1.898       .  S
O6           C13   1.264       .  A
O7           V10   1.902       .  S
O7           C12   1.265       .  A
O8          V410   1.899       .  S
O8           C11   1.265       .  A
V9          O402   1.908       .  S
V9          O404   1.898       .  S
V9          V410   2.073       .  T
V10         O406   1.898   1_554  S
V10         O408   1.899   1_554  S
V10         V409   2.073       .  T
C11         C330   1.490       .  S
C12         C381   1.495       .  S
C13         C361   1.484       .  S
C14         C350   1.491       .  S
O15          V23   1.896   1_554  S
O15          C25   1.264   1_655  A
O16         V423   1.897   1_565  S
O16          C26   1.263   1_655  A
O17          V23   1.898   1_564  S
O17          C27   1.265   1_655  A
O18         V423   1.897       .  S
O18          C28   1.265   1_655  A
O19         V424   1.896       .  S
O19          C28   1.264       .  A
O20          V24   1.893   1_564  S
O20          C27   1.263       .  A
O21         V424   1.909   1_565  S
O21          C26   1.268       .  A
O22          V24   1.908   1_554  S
O22          C25   1.267       .  A
V23         O416   1.897   1_545  S
V23         O418   1.897       .  S
V23          V24   2.071   1_655  T
V24         O419   1.896       .  S
V24         O421   1.909   1_545  S
C25         C310   1.490       .  S
C26         C241   1.497       .  S
C27         C270   1.489       .  S
C28         C281   1.481       .  S
C29          C31   1.538       .  S
C29          C33   1.547       .  S
C29          C32   1.553       .  S
C29         C190   1.543       .  S
C30          C34   1.528       .  S
C30          C36   1.545       .  S
C30          C35   1.535       .  S
C30         C201   1.538       .  S
C31          C39   1.381       .  A
C31          C34   1.388   1_655  A
C32          C43   1.385       .  A
C32          C35   1.397   1_655  A
C33          C47   1.384       .  A
C33          C36   1.402   1_655  A
C34          C37   1.374       .  A
C35          C41   1.376       .  A
C36          C44   1.379       .  A
C37          N38   1.358   1_455  A
C37          H50   1.083       .  S
N38          C39   1.362       .  A
N38         C230   1.444       .  S
C39          H40   1.082       .  S
C41          N42   1.352   1_455  A
C41          H51   1.083       .  S
N42          C43   1.359       .  A
N42         C290   1.436       .  S
C43          H49   1.081       .  S
C44          N45   1.352   1_455  A
C44          H46   1.081       .  S
N45          C47   1.353       .  A
N45         C301   1.434       .  S
C47          H48   1.082       .  S
C52          C54   1.539       .  S
C52          C56   1.541       .  S
C52          C55   1.543       .  S
C52         C161   1.541       .  S
C53          C57   1.551       .  S
C53          C59   1.530       .  S
C53          C58   1.550       .  S
C53         C141   1.544       .  S
C54          C62   1.378       .  A
C54          C57   1.396   1_455  A
C55          C66   1.381       .  A
C55          C58   1.398   1_455  A
C56          C70   1.381       .  A
C56          C59   1.392   1_455  A
C57          C60   1.388       .  A
C58          C64   1.382       .  A
C59          C67   1.374       .  A
C60          N61   1.363       .  A
C60          H73   1.082       .  S
N61          C62   1.359   1_655  A
N61         C221   1.448       .  S
C62          H63   1.082       .  S
C64          N65   1.356   1_655  A
C64          H74   1.081       .  S
N65          C66   1.353       .  A
N65         C250   1.435       .  S
C66          H72   1.083       .  S
C67          N68   1.352   1_655  A
C67          H69   1.080       .  S
N68          C70   1.353       .  A
N68         C261   1.427       .  S
C70          H71   1.084       .  S
C75          C77   1.555       .  S
C75          C79   1.552       .  S
C75          C78   1.528       .  S
C75         C150   1.544       .  S
C76          C80   1.560       .  S
C76          C82   1.531       .  S
C76          C81   1.544       .  S
C76         C170   1.544       .  S
C77          C85   1.383       .  A
C77          C80   1.405       .  A
C78          C89   1.377       .  A
C78          C81   1.387       .  A
C79          C93   1.388       .  A
C79          C82   1.390       .  A
C80          C83   1.388       .  A
C81          C87   1.384       .  A
C82          C90   1.377       .  A
C83          N84   1.363       .  A
C83          H96   1.081       .  S
N84          C85   1.360       .  A
N84         C130   1.455       .  S
C85          H86   1.082       .  S
C87          N88   1.358       .  A
C87          H97   1.081       .  S
N88          C89   1.352       .  A
N88         C341   1.434       .  S
C89          H95   1.083       .  S
C90          N91   1.353       .  A
C90          H92   1.083       .  S
N91          C93   1.359       .  A
N91         C321   1.438       .  S
C93          H94   1.082       .  S
C98         C100   1.560       .  S
C98         C102   1.528       .  S
C98         C101   1.541       .  S
C98         C210   1.547       .  S
C99         C103   1.563       .  S
C99         C105   1.529       .  S
C99         C104   1.547       .  S
C99         C181   1.550       .  S
C100        C108   1.388       .  A
C100        C103   1.414       .  A
C101        C112   1.381       .  A
C101        C104   1.391       .  A
C102        C116   1.379       .  A
C102        C105   1.382       .  A
C103        C106   1.387       .  A
C104        C110   1.386       .  A
C105        C113   1.377       .  A
C106        N107   1.359       .  A
C106        H119   1.081       .  S
N107        C108   1.361       .  A
N107        C121   1.453       .  S
C108        H109   1.081       .  S
C110        N111   1.359       .  A
C110        H120   1.082       .  S
N111        C112   1.354       .  A
N111        C390   1.441       .  S
C112        H118   1.082       .  S
C113        N114   1.354       .  A
C113        H115   1.082       .  S
N114        C116   1.356       .  A
N114        C370   1.433       .  S
C116        H117   1.083       .  S
C121        C122   1.413       .  A
C121        C126   1.414       .  A
C122        C123   1.417       .  A
C122       Br134   1.926       .  S
C123        C124   1.414       .  A
C123       Br138   1.928       .  S
C124        C127   1.504   1_545  S
C124        C125   1.411       .  A
C125        C126   1.411       .  A
C125       Br133   1.932       .  S
C126       Br137   1.922       .  S
C127        C128   1.412       .  A
C127        C132   1.412       .  A
C128        C129   1.415       .  A
C128       Br139   1.930       .  S
C129        C130   1.417       .  A
C129       Br135   1.928       .  S
C130        C131   1.416       .  A
C131        C132   1.413       .  A
C131       Br140   1.929       .  S
C132       Br136   1.931       .  S
C141        C142   1.423       .  A
C141        C146   1.421       .  A
C142        C143   1.405       .  A
C142       Br154   1.930       .  S
C143        C144   1.402       .  A
C143       Br158   1.930       .  S
C144        C147   1.484       .  S
C144        C145   1.408       .  A
C145        C146   1.409       .  A
C145       Br153   1.933       .  S
C146       Br157   1.929       .  S
C147        C148   1.401       .  A
C147        C152   1.409       .  A
C148        C149   1.400       .  A
C148       Br159   1.933       .  S
C149        C150   1.422       .  A
C149       Br155   1.931       .  S
C150        C151   1.426       .  A
C151        C152   1.414       .  A
C151       Br160   1.935       .  S
C152       Br156   1.933       .  S
C161        C162   1.420       .  A
C161        C166   1.415       .  A
C162        C163   1.407       .  A
C162       Br174   1.931       .  S
C163        C164   1.408       .  A
C163       Br178   1.932       .  S
C164        C167   1.484       .  S
C164        C165   1.407       .  A
C165        C166   1.406       .  A
C165       Br173   1.928       .  S
C166       Br177   1.932       .  S
C167        C168   1.408       .  A
C167        C172   1.403       .  A
C168        C169   1.411       .  A
C168       Br179   1.929       .  S
C169        C170   1.418       .  A
C169       Br175   1.931       .  S
C170        C171   1.426       .  A
C171        C172   1.404       .  A
C171       Br180   1.933       .  S
C172       Br176   1.934       .  S
C181        C182   1.430       .  A
C181        C186   1.418       .  A
C182        C183   1.407       .  A
C182       Br194   1.935       .  S
C183        C184   1.404       .  A
C183       Br198   1.937       .  S
C184        C187   1.491       .  S
C184        C185   1.409       .  A
C185        C186   1.413       .  A
C185       Br193   1.928       .  S
C186       Br197   1.929       .  S
C187        C188   1.410       .  A
C187        C192   1.409       .  A
C188        C189   1.409       .  A
C188       Br199   1.930       .  S
C189        C190   1.417       .  A
C189       Br195   1.934       .  S
C190        C191   1.418       .  A
C191        C192   1.409       .  A
C191       Br200   1.929       .  S
C192       Br196   1.931       .  S
C201        C202   1.415       .  A
C201        C206   1.421       .  A
C202        C203   1.402       .  A
C202       Br214   1.929       .  S
C203        C204   1.404       .  A
C203       Br218   1.928       .  S
C204        C207   1.482       .  S
C204        C205   1.409       .  A
C205        C206   1.409       .  A
C205       Br213   1.932       .  S
C206       Br217   1.936       .  S
C207        C208   1.404       .  A
C207        C212   1.402       .  A
C208        C209   1.409       .  A
C208       Br219   1.931       .  S
C209        C210   1.420       .  A
C209       Br215   1.922       .  S
C210        C211   1.432       .  A
C211        C212   1.405       .  A
C211       Br220   1.938       .  S
C212       Br216   1.937       .  S
C221        C222   1.413       .  A
C221        C226   1.412   1_655  A
C222        C223   1.411       .  A
C222       Br234   1.921       .  S
C223        C224   1.411       .  A
C223       Br238   1.932       .  S
C224        C227   1.493       .  S
C224        C225   1.410   1_655  A
C225        C226   1.408       .  A
C225       Br233   1.931       .  S
C226       Br237   1.923       .  S
C227        C228   1.412       .  A
C227        C232   1.411   1_655  A
C228        C229   1.409       .  A
C228       Br239   1.931       .  S
C229        C230   1.411       .  A
C229       Br235   1.928       .  S
C230        C231   1.414   1_655  A
C231        C232   1.410       .  A
C231       Br240   1.929       .  S
C232       Br236   1.931       .  S
C241        C242   1.422   1_455  A
C241        C246   1.421       .  A
C242        C243   1.410       .  A
C242       Br254   1.934       .  S
C243        C244   1.407   1_655  A
C243       Br258   1.934       .  S
C244        C247   1.491       .  S
C244        C245   1.408       .  A
C245        C246   1.411       .  A
C245       Br253   1.933       .  S
C246       Br257   1.934       .  S
C247        C248   1.413       .  A
C247        C252   1.412       .  A
C248        C249   1.408       .  A
C248       Br259   1.929       .  S
C249        C250   1.403       .  A
C249       Br255   1.925       .  S
C250        C251   1.406       .  A
C251        C252   1.407       .  A
C251       Br260   1.925       .  S
C252       Br256   1.930       .  S
C261        C262   1.403       .  A
C261        C266   1.405       .  A
C262        C263   1.405       .  A
C262       Br274   1.925       .  S
C263        C264   1.411       .  A
C263       Br278   1.929       .  S
C264        C267   1.478       .  S
C264        C265   1.409       .  A
C265        C266   1.403       .  A
C265       Br273   1.929       .  S
C266       Br277   1.926       .  S
C267        C268   1.405   1_455  A
C267        C272   1.404       .  A
C268        C269   1.406       .  A
C268       Br279   1.934       .  S
C269        C270   1.422   1_655  A
C269       Br275   1.936       .  S
C270        C271   1.422       .  A
C271        C272   1.406       .  A
C271       Br280   1.935       .  S
C272       Br276   1.933       .  S
C281        C282   1.416   1_455  A
C281        C286   1.415       .  A
C282        C283   1.404       .  A
C282       Br294   1.934       .  S
C283        C284   1.407   1_655  A
C283       Br298   1.933       .  S
C284        C287   1.482       .  S
C284        C285   1.409       .  A
C285        C286   1.408       .  A
C285       Br293   1.930       .  S
C286       Br297   1.932       .  S
C287        C288   1.411       .  A
C287        C292   1.408   1_455  A
C288        C289   1.407       .  A
C288       Br299   1.930       .  S
C289        C290   1.407   1_455  A
C289       Br295   1.926       .  S
C290        C291   1.408       .  A
C291        C292   1.405       .  A
C291       Br300   1.923       .  S
C292       Br296   1.931       .  S
C301        C302   1.408       .  A
C301        C306   1.405       .  A
C302        C303   1.404       .  A
C302       Br314   1.926       .  S
C303        C304   1.409       .  A
C303       Br318   1.930   1_655  S
C304        C307   1.485       .  S
C304        C305   1.412       .  A
C305        C306   1.409       .  A
C305       Br313   1.927       .  S
C306       Br317   1.925       .  S
C307        C308   1.406       .  A
C307        C312   1.407   1_655  A
C308        C309   1.408       .  A
C308       Br319   1.932       .  S
C309        C310   1.418   1_655  A
C309       Br315   1.933       .  S
C310        C311   1.419       .  A
C311        C312   1.410       .  A
C311       Br320   1.932       .  S
C312       Br316   1.932       .  S
C321        C322   1.408       .  A
C321        C326   1.406       .  A
C322        C323   1.406       .  A
C322       Br334   1.923       .  S
C323        C324   1.410       .  A
C323       Br338   1.931       .  S
C324        C327   1.491       .  S
C324        C325   1.412       .  A
C325        C326   1.411       .  A
C325       Br333   1.927       .  S
C326       Br337   1.924       .  S
C327        C328   1.408       .  A
C327        C332   1.409       .  A
C328        C329   1.408       .  A
C328       Br339   1.932       .  S
C329        C330   1.417       .  A
C329       Br335   1.934       .  S
C330        C331   1.416       .  A
C331        C332   1.412       .  A
C331       Br340   1.931       .  S
C332       Br336   1.930       .  S
C341        C342   1.406       .  A
C341        C346   1.406       .  A
C342        C343   1.408       .  A
C342       Br354   1.924       .  S
C343        C344   1.411       .  A
C343       Br358   1.928       .  S
C344        C347   1.484       .  S
C344        C345   1.410       .  A
C345        C346   1.404       .  A
C345       Br353   1.930       .  S
C346       Br357   1.923       .  S
C347        C348   1.407       .  A
C347        C352   1.407       .  A
C348        C349   1.407       .  A
C348       Br359   1.931       .  S
C349        C350   1.418       .  A
C349       Br355   1.934       .  S
C350        C351   1.421       .  A
C351        C352   1.408       .  A
C351       Br360   1.933       .  S
C352       Br356   1.933       .  S
C361        C362   1.419       .  A
C361        C366   1.418       .  A
C362        C363   1.405       .  A
C362       Br374   1.935       .  S
C363        C364   1.405       .  A
C363       Br378   1.934       .  S
C364        C367   1.477       .  S
C364        C365   1.405       .  A
C365        C366   1.407       .  A
C365       Br373   1.931       .  S
C366       Br377   1.933       .  S
C367        C368   1.407       .  A
C367        C372   1.408       .  A
C368        C369   1.404       .  A
C368       Br379   1.931       .  S
C369        C370   1.409       .  A
C369       Br375   1.922       .  S
C370        C371   1.406       .  A
C371        C372   1.405       .  A
C371       Br380   1.926       .  S
C372       Br376   1.929       .  S
C381        C382   1.418       .  A
C381        C386   1.420       .  A
C382        C383   1.410       .  A
C382       Br394   1.932       .  S
C383        C384   1.407       .  A
C383       Br398   1.931       .  S
C384        C387   1.490       .  S
C384        C385   1.409       .  A
C385        C386   1.410       .  A
C385       Br393   1.933       .  S
C386       Br397   1.933       .  S
C387        C388   1.412       .  A
C387        C392   1.409       .  A
C388        C389   1.411       .  A
C388       Br399   1.927       .  S
C389        C390   1.408       .  A
C389       Br395   1.926       .  S
C390        C391   1.410       .  A
C391        C392   1.406       .  A
C391       Br400   1.920       .  S
C392       Br396   1.933       .  S
O401        V409   1.908   1_556  S
O401        C411   1.267       .  A
O402        C412   1.268       .  A
O403        V409   1.894   1_556  S
O403        C413   1.263       .  A
O404        C414   1.263       .  A
O405        V410   1.901       .  S
O405        C414   1.266       .  A
O406        C413   1.264       .  A
O407        V410   1.902       .  S
O407        C412   1.265       .  A
O408        C411   1.265       .  A
C411        C730   1.490       .  S
C412        C781   1.495       .  S
C413        C761   1.484       .  S
C414        C750   1.491       .  S
O415        V423   1.896       .  S
O415        C425   1.264   1_655  A
O416        C426   1.263   1_655  A
O417        V423   1.898   1_565  S
O417        C427   1.265   1_655  A
O418        C428   1.265   1_655  A
O419        C428   1.264       .  A
O420        V424   1.893   1_565  S
O420        C427   1.263       .  A
O421        C426   1.268       .  A
O422        V424   1.908       .  S
O422        C425   1.267       .  A
V423        V424   2.071   1_655  T
C425        C710   1.490       .  S
C426        C641   1.497       .  S
C427        C670   1.489       .  S
C428        C681   1.481       .  S
C429        C431   1.538       .  S
C429        C433   1.547       .  S
C429        C432   1.553       .  S
C429        C590   1.543       .  S
C430        C434   1.528       .  S
C430        C436   1.545       .  S
C430        C435   1.535       .  S
C430        C601   1.538       .  S
C431        C439   1.381       .  A
C431        C434   1.388   1_655  A
C432        C443   1.385       .  A
C432        C435   1.397   1_655  A
C433        C447   1.384       .  A
C433        C436   1.402   1_655  A
C434        C437   1.374       .  A
C435        C441   1.376       .  A
C436        C444   1.379       .  A
C437        N438   1.358   1_455  A
C437        H450   1.083       .  S
N438        C439   1.362       .  A
N438        C630   1.444       .  S
C439        H440   1.082       .  S
C441        N442   1.352   1_455  A
C441        H451   1.083       .  S
N442        C443   1.359       .  A
N442        C690   1.436       .  S
C443        H449   1.081       .  S
C444        N445   1.352   1_455  A
C444        H446   1.081       .  S
N445        C447   1.353       .  A
N445        C701   1.434       .  S
C447        H448   1.082       .  S
C452        C454   1.539       .  S
C452        C456   1.541       .  S
C452        C455   1.543       .  S
C452        C561   1.541       .  S
C453        C457   1.551       .  S
C453        C459   1.530       .  S
C453        C458   1.550       .  S
C453        C541   1.544       .  S
C454        C462   1.378       .  A
C454        C457   1.396   1_455  A
C455        C466   1.381       .  A
C455        C458   1.398   1_455  A
C456        C470   1.381       .  A
C456        C459   1.392   1_455  A
C457        C460   1.388       .  A
C458        C464   1.382       .  A
C459        C467   1.374       .  A
C460        N461   1.363       .  A
C460        H473   1.082       .  S
N461        C462   1.359   1_655  A
N461        C621   1.448       .  S
C462        H463   1.082       .  S
C464        N465   1.356   1_655  A
C464        H474   1.081       .  S
N465        C466   1.353       .  A
N465        C650   1.435       .  S
C466        H472   1.083       .  S
C467        N468   1.352   1_655  A
C467        H469   1.080       .  S
N468        C470   1.353       .  A
N468        C661   1.427       .  S
C470        H471   1.084       .  S
C475        C477   1.555       .  S
C475        C479   1.552       .  S
C475        C478   1.528       .  S
C475        C550   1.544       .  S
C476        C480   1.560       .  S
C476        C482   1.531       .  S
C476        C481   1.544       .  S
C476        C570   1.544       .  S
C477        C485   1.383       .  A
C477        C480   1.405       .  A
C478        C489   1.377       .  A
C478        C481   1.387       .  A
C479        C493   1.388       .  A
C479        C482   1.390       .  A
C480        C483   1.388       .  A
C481        C487   1.384       .  A
C482        C490   1.377       .  A
C483        N484   1.363       .  A
C483        H496   1.081       .  S
N484        C485   1.360       .  A
N484        C530   1.455       .  S
C485        H486   1.082       .  S
C487        N488   1.358       .  A
C487        H497   1.081       .  S
N488        C489   1.352       .  A
N488        C741   1.434       .  S
C489        H495   1.083       .  S
C490        N491   1.353       .  A
C490        H492   1.083       .  S
N491        C493   1.359       .  A
N491        C721   1.438       .  S
C493        H494   1.082       .  S
C498        C500   1.560       .  S
C498        C502   1.528       .  S
C498        C501   1.541       .  S
C498        C610   1.547       .  S
C499        C503   1.563       .  S
C499        C505   1.529       .  S
C499        C504   1.547       .  S
C499        C581   1.550       .  S
C500        C508   1.388       .  A
C500        C503   1.414       .  A
C501        C512   1.381       .  A
C501        C504   1.391       .  A
C502        C516   1.379       .  A
C502        C505   1.382       .  A
C503        C506   1.387       .  A
C504        C510   1.386       .  A
C505        C513   1.377       .  A
C506        N507   1.359       .  A
C506        H519   1.081       .  S
N507        C508   1.361       .  A
N507        C521   1.453       .  S
C508        H509   1.081       .  S
C510        N511   1.359       .  A
C510        H520   1.082       .  S
N511        C512   1.354       .  A
N511        C790   1.441       .  S
C512        H518   1.082       .  S
C513        N514   1.354       .  A
C513        H515   1.082       .  S
N514        C516   1.356       .  A
N514        C770   1.433       .  S
C516        H517   1.083       .  S
C521        C522   1.413       .  A
C521        C526   1.414       .  A
C522        C523   1.417       .  A
C522       Br534   1.926       .  S
C523        C524   1.414       .  A
C523       Br538   1.928       .  S
C524        C527   1.504   1_545  S
C524        C525   1.411       .  A
C525        C526   1.411       .  A
C525       Br533   1.932       .  S
C526       Br537   1.922       .  S
C527        C528   1.412       .  A
C527        C532   1.412       .  A
C528        C529   1.415       .  A
C528       Br539   1.930       .  S
C529        C530   1.417       .  A
C529       Br535   1.928       .  S
C530        C531   1.416       .  A
C531        C532   1.413       .  A
C531       Br540   1.929       .  S
C532       Br536   1.931       .  S
C541        C542   1.423       .  A
C541        C546   1.421       .  A
C542        C543   1.405       .  A
C542       Br554   1.930       .  S
C543        C544   1.402       .  A
C543       Br558   1.930       .  S
C544        C547   1.484       .  S
C544        C545   1.408       .  A
C545        C546   1.409       .  A
C545       Br553   1.933       .  S
C546       Br557   1.929       .  S
C547        C548   1.401       .  A
C547        C552   1.409       .  A
C548        C549   1.400       .  A
C548       Br559   1.933       .  S
C549        C550   1.422       .  A
C549       Br555   1.931       .  S
C550        C551   1.426       .  A
C551        C552   1.414       .  A
C551       Br560   1.935       .  S
C552       Br556   1.933       .  S
C561        C562   1.420       .  A
C561        C566   1.415       .  A
C562        C563   1.407       .  A
C562       Br574   1.931       .  S
C563        C564   1.408       .  A
C563       Br578   1.932       .  S
C564        C567   1.484       .  S
C564        C565   1.407       .  A
C565        C566   1.406       .  A
C565       Br573   1.928       .  S
C566       Br577   1.932       .  S
C567        C568   1.408       .  A
C567        C572   1.403       .  A
C568        C569   1.411       .  A
C568       Br579   1.929       .  S
C569        C570   1.418       .  A
C569       Br575   1.931       .  S
C570        C571   1.426       .  A
C571        C572   1.404       .  A
C571       Br580   1.933       .  S
C572       Br576   1.934       .  S
C581        C582   1.430       .  A
C581        C586   1.418       .  A
C582        C583   1.407       .  A
C582       Br594   1.935       .  S
C583        C584   1.404       .  A
C583       Br598   1.937       .  S
C584        C587   1.491       .  S
C584        C585   1.409       .  A
C585        C586   1.413       .  A
C585       Br593   1.928       .  S
C586       Br597   1.929       .  S
C587        C588   1.410       .  A
C587        C592   1.409       .  A
C588        C589   1.409       .  A
C588       Br599   1.930       .  S
C589        C590   1.417       .  A
C589       Br595   1.934       .  S
C590        C591   1.418       .  A
C591        C592   1.409       .  A
C591       Br600   1.929       .  S
C592       Br596   1.931       .  S
C601        C602   1.415       .  A
C601        C606   1.421       .  A
C602        C603   1.402       .  A
C602       Br614   1.929       .  S
C603        C604   1.404       .  A
C603       Br618   1.928       .  S
C604        C607   1.482       .  S
C604        C605   1.409       .  A
C605        C606   1.409       .  A
C605       Br613   1.932       .  S
C606       Br617   1.936       .  S
C607        C608   1.404       .  A
C607        C612   1.402       .  A
C608        C609   1.409       .  A
C608       Br619   1.931       .  S
C609        C610   1.420       .  A
C609       Br615   1.922       .  S
C610        C611   1.432       .  A
C611        C612   1.405       .  A
C611       Br620   1.938       .  S
C612       Br616   1.937       .  S
C621        C622   1.413       .  A
C621        C626   1.412   1_655  A
C622        C623   1.411       .  A
C622       Br634   1.921       .  S
C623        C624   1.411       .  A
C623       Br638   1.932       .  S
C624        C627   1.493       .  S
C624        C625   1.410   1_655  A
C625        C626   1.408       .  A
C625       Br633   1.931       .  S
C626       Br637   1.923       .  S
C627        C628   1.412       .  A
C627        C632   1.411   1_655  A
C628        C629   1.409       .  A
C628       Br639   1.931       .  S
C629        C630   1.411       .  A
C629       Br635   1.928       .  S
C630        C631   1.414   1_655  A
C631        C632   1.410       .  A
C631       Br640   1.929       .  S
C632       Br636   1.931       .  S
C641        C642   1.422   1_455  A
C641        C646   1.421       .  A
C642        C643   1.410       .  A
C642       Br654   1.934       .  S
C643        C644   1.407   1_655  A
C643       Br658   1.934       .  S
C644        C647   1.491       .  S
C644        C645   1.408       .  A
C645        C646   1.411       .  A
C645       Br653   1.933       .  S
C646       Br657   1.934       .  S
C647        C648   1.413       .  A
C647        C652   1.412       .  A
C648        C649   1.408       .  A
C648       Br659   1.929       .  S
C649        C650   1.403       .  A
C649       Br655   1.925       .  S
C650        C651   1.406       .  A
C651        C652   1.407       .  A
C651       Br660   1.925       .  S
C652       Br656   1.930       .  S
C661        C662   1.403       .  A
C661        C666   1.405       .  A
C662        C663   1.405       .  A
C662       Br674   1.925       .  S
C663        C664   1.411       .  A
C663       Br678   1.929       .  S
C664        C667   1.478       .  S
C664        C665   1.409       .  A
C665        C666   1.403       .  A
C665       Br673   1.929       .  S
C666       Br677   1.926       .  S
C667        C668   1.405   1_455  A
C667        C672   1.404       .  A
C668        C669   1.406       .  A
C668       Br679   1.934       .  S
C669        C670   1.422   1_655  A
C669       Br675   1.936       .  S
C670        C671   1.422       .  A
C671        C672   1.406       .  A
C671       Br680   1.935       .  S
C672       Br676   1.933       .  S
C681        C682   1.416   1_455  A
C681        C686   1.415       .  A
C682        C683   1.404       .  A
C682       Br694   1.934       .  S
C683        C684   1.407   1_655  A
C683       Br698   1.933       .  S
C684        C687   1.482       .  S
C684        C685   1.409       .  A
C685        C686   1.408       .  A
C685       Br693   1.930       .  S
C686       Br697   1.932       .  S
C687        C688   1.411       .  A
C687        C692   1.408   1_455  A
C688        C689   1.407       .  A
C688       Br699   1.930       .  S
C689        C690   1.407   1_455  A
C689       Br695   1.926       .  S
C690        C691   1.408       .  A
C691        C692   1.405       .  A
C691       Br700   1.923       .  S
C692       Br696   1.931       .  S
C701        C702   1.408       .  A
C701        C706   1.405       .  A
C702        C703   1.404       .  A
C702       Br714   1.926       .  S
C703        C704   1.409       .  A
C703       Br718   1.930   1_655  S
C704        C707   1.485       .  S
C704        C705   1.412       .  A
C705        C706   1.409       .  A
C705       Br713   1.927       .  S
C706       Br717   1.925       .  S
C707        C708   1.406       .  A
C707        C712   1.407   1_655  A
C708        C709   1.408       .  A
C708       Br719   1.932       .  S
C709        C710   1.418   1_655  A
C709       Br715   1.933       .  S
C710        C711   1.419       .  A
C711        C712   1.410       .  A
C711       Br720   1.932       .  S
C712       Br716   1.932       .  S
C721        C722   1.408       .  A
C721        C726   1.406       .  A
C722        C723   1.406       .  A
C722       Br734   1.923       .  S
C723        C724   1.410       .  A
C723       Br738   1.931       .  S
C724        C727   1.491       .  S
C724        C725   1.412       .  A
C725        C726   1.411       .  A
C725       Br733   1.927       .  S
C726       Br737   1.924       .  S
C727        C728   1.408       .  A
C727        C732   1.409       .  A
C728        C729   1.408       .  A
C728       Br739   1.932       .  S
C729        C730   1.417       .  A
C729       Br735   1.934       .  S
C730        C731   1.416       .  A
C731        C732   1.412       .  A
C731       Br740   1.931       .  S
C732       Br736   1.930       .  S
C741        C742   1.406       .  A
C741        C746   1.406       .  A
C742        C743   1.408       .  A
C742       Br754   1.924       .  S
C743        C744   1.411       .  A
C743       Br758   1.928       .  S
C744        C747   1.484       .  S
C744        C745   1.410       .  A
C745        C746   1.405       .  A
C745       Br753   1.930       .  S
C746       Br757   1.923       .  S
C747        C748   1.407       .  A
C747        C752   1.407       .  A
C748        C749   1.407       .  A
C748       Br759   1.931       .  S
C749        C750   1.418       .  A
C749       Br755   1.934       .  S
C750        C751   1.421       .  A
C751        C752   1.408       .  A
C751       Br760   1.933       .  S
C752       Br756   1.933       .  S
C761        C762   1.419       .  A
C761        C766   1.418       .  A
C762        C763   1.405       .  A
C762       Br774   1.935       .  S
C763        C764   1.405       .  A
C763       Br778   1.934       .  S
C764        C767   1.477       .  S
C764        C765   1.405       .  A
C765        C766   1.407       .  A
C765       Br773   1.931       .  S
C766       Br777   1.933       .  S
C767        C768   1.407       .  A
C767        C772   1.408       .  A
C768        C769   1.404       .  A
C768       Br779   1.931       .  S
C769        C770   1.409       .  A
C769       Br775   1.922       .  S
C770        C771   1.406       .  A
C771        C772   1.405       .  A
C771       Br780   1.926       .  S
C772       Br776   1.929       .  S
C781        C782   1.418       .  A
C781        C786   1.420       .  A
C782        C783   1.410       .  A
C782       Br794   1.932       .  S
C783        C784   1.407       .  A
C783       Br798   1.931       .  S
C784        C787   1.490       .  S
C784        C785   1.409       .  A
C785        C786   1.410       .  A
C785       Br793   1.933       .  S
C786       Br797   1.933       .  S
C787        C788   1.412       .  A
C787        C792   1.409       .  A
C788        C789   1.411       .  A
C788       Br799   1.927       .  S
C789        C790   1.408       .  A
C789       Br795   1.926       .  S
C790        C791   1.410       .  A
C791        C792   1.406       .  A
C791       Br800   1.920       .  S
C792       Br796   1.933       .  S
