geometry optimzed in LAMMPS
_audit_creation_date              2020-12-01 
_audit_creation_method            'lammps2cif' 
_symmetry_space_group_name_H-M    'P1' 
_symmetry_Int_Tables_number       1 
_symmetry_cell_setting            triclinic 
loop_ 
_symmetry_equiv_pos_as_xyz 
  x,y,z 
_cell_length_a                    30.43535852 
_cell_length_b                    26.719131079669914 
_cell_length_c                    30.53542718209392 
_cell_angle_alpha                 87.45405578176543 
_cell_angle_beta                  88.89802558937761 
_cell_angle_gamma                 88.76638263783094 
loop_ 
_atom_site_label 
_atom_site_type_symbol 
_atom_site_fract_x 
_atom_site_fract_y 
_atom_site_fract_z 
_atom_site_charge 
C1          C  0.65237887  0.13023825  0.19541914     0.86200
C2          C  0.68152069  0.17540899  0.20381474    -0.54000
C3          C  0.70347975  0.17208112  0.24285168     0.09100
C4          C  0.69189810  0.12540897  0.27101301     0.20100
C5          C  0.68420123  0.08514959  0.20199614    -0.54700
C6          C  0.70560035  0.08277191  0.24119567     0.09300
C7          C  0.62123887  0.12748727  0.23535300    -0.54300
C8          C  0.64156715  0.12499694  0.27453283     0.09800
H9          H  0.68622571  0.20604917  0.18099177     0.14300
H10         H  0.70622460  0.12352465  0.30382415     0.00100
H11         H  0.68987515  0.05910890  0.17629613     0.14600
H12         H  0.58566655  0.12726341  0.23284716     0.14400
C13         C  0.79364643  0.24729422  0.29824684     0.86200
C14         C  0.76380139  0.04431486  0.29063432    -0.54000
C15         C  0.74145724  0.04567928  0.25201380     0.09100
C16         C  0.75267327  0.25101527  0.22379543     0.20100
C17         C  0.76182133  0.20378660  0.29281908    -0.54700
C18         C  0.73953210  0.20622630  0.25389217     0.09300
C19         C  0.82400001  0.24740188  0.25773849    -0.54300
C20         C  0.80278552  0.24850418  0.21913148     0.09800
H21         H  0.75892274  0.07263212  0.31412414     0.14300
H22         H  0.73812712  0.25302351  0.19117450     0.00100
H23         H  0.75673090  0.17537693  0.31868535     0.14600
H24         H  0.85964932  0.24634105  0.25943604     0.14400
C25         C  0.29782690  0.09994497  0.20970153     0.86200
C26         C  0.26905293  0.05336372  0.21285799    -0.54000
C27         C  0.24268562  0.04929296  0.24962427     0.09100
C28         C  0.24768588  0.09296714  0.28081165     0.20100
C29         C  0.26428974  0.14350464  0.21452546    -0.54700
C30         C  0.23820924  0.14006049  0.25122569     0.09300
C31         C  0.32313156  0.09851328  0.25239969    -0.54300
C32         C  0.29758621  0.09537134  0.28965979     0.09800
H33         H  0.26715309  0.02767861  0.18638149     0.14300
H34         H  0.22631715  0.09032263  0.31069121     0.00100
H35         H  0.25795324  0.17316788  0.19012567     0.14600
H36         H  0.35860097  0.10225014  0.25311941     0.14400
C37         C  0.14227293  0.22479018  0.21785719     0.86200
C38         C  0.17532220  0.01765030  0.21694652    -0.54000
C39         C  0.20461736  0.01513675  0.25036725     0.09100
C40         C  0.19720187  0.22029207  0.28316504     0.20100
C41         C  0.17018101  0.17656300  0.22109712    -0.54700
C42         C  0.19928881  0.17395687  0.25465098     0.09300
C43         C  0.12008167  0.22791691  0.26315300    -0.54300
C44         C  0.14840612  0.22567589  0.29722115     0.09800
H45         H  0.17638308  0.04698468  0.19117275     0.14300
H46         H  0.22031390  0.21799823  0.31057175     0.00100
H47         H  0.16989637  0.14869989  0.19622485     0.14600
H48         H  0.08526456  0.23409617  0.26906762     0.14400
O49         O  0.01731447  0.02468833  0.04750145    -0.72000
O50         O  0.93139288  0.02998295  0.45836090    -0.72300
O51         O  0.92978414  0.03197867  0.04586153    -0.72100
O52         O  0.01973943  0.02378659  0.45981164    -0.72100
O53         O  0.01888920  0.19255140  0.46516435    -0.72100
O54         O  0.92414281  0.20109029  0.04875793    -0.72100
O55         O  0.93026686  0.19869319  0.46069723    -0.72000
O56         O  0.01160713  0.19360987  0.05320382    -0.72200
V57         V  0.97451231  0.02598307  0.00280328     1.35200
V58         V  0.97129591  0.19797357  0.00670153     1.35200
C59         C  0.02783604  0.23316494  0.06636735     0.77200
C60         C  0.91587458  0.24008324  0.44457093     0.77300
C61         C  0.91227820  0.24328601  0.06290931     0.77100
C62         C  0.03550395  0.23218694  0.44823323     0.77100
O63         O  0.43291576  0.06981703  0.04097733    -0.72000
O64         O  0.51499750  0.07259677  0.44595084    -0.72300
O65         O  0.52052334  0.07187003  0.03410347    -0.72100
O66         O  0.42686023  0.07138235  0.45301747    -0.72100
O67         O  0.42535375  0.15265742  0.45002409    -0.72100
O68         O  0.51736294  0.15316236  0.03185148    -0.72100
O69         O  0.51350484  0.15388377  0.44402703    -0.72000
O70         O  0.42961654  0.15105785  0.03807346    -0.72200
V71         V  0.47381819  0.07298158  0.99338386     1.35200
V72         V  0.47147548  0.15110158  0.99103104     1.35200
C73         C  0.41737057  0.10991041  0.05599749     0.77200
C74         C  0.52817609  0.11351229  0.42855205     0.77300
C75         C  0.53414569  0.11278721  0.04760569     0.77100
C76         C  0.41051147  0.11212990  0.43717221     0.77100
C77         C  0.07130422  0.23150435  0.41437859    -0.00400
C78         C  0.07640989  0.02477940  0.38696018    -0.12300
C79         C  0.10577629  0.02535540  0.35135606     0.01800
C80         C  0.13085411  0.23193688  0.34220571    -0.00500
C81         C  0.12910125  0.19019633  0.37166764    -0.12200
C82         C  0.09951786  0.18958149  0.40766988     0.01700
H83         H  0.05568260  0.05767000  0.39179312     0.14700
H84         H  0.14868894  0.15693697  0.36495992     0.14700
C85         C  0.09862650  0.14555029  0.43677967     0.36300
C86         C  0.10697230  0.06958152  0.32232810     0.36200
N87         N  0.09816395  0.11039463  0.46032167    -0.44000
N88         N  0.10767816  0.10457076  0.29861678    -0.44000
C89         C  0.11243675  0.22630526  0.17781350    -0.00400
C90         C  0.06669651  0.22002983  0.18292382    -0.12300
C91         C  0.03904256  0.22201801  0.14696074     0.01800
C92         C  0.05654203  0.23082260  0.10448057    -0.00500
C93         C  0.10198121  0.23482922  0.09840030    -0.12200
C94         C  0.13005438  0.98122935  0.13435911     0.01700
H95         H  0.05171555  0.21157548  0.21456584     0.14700
H96         H  0.11560550  0.98953220  0.06543768     0.14700
C97         C  0.17684495  0.98118345  0.12534302     0.36300
C98         C  0.99272328  0.21418574  0.15483328     0.36200
N99         N  0.21432081  0.98092638  0.11813025    -0.44000
N100        N  0.95588458  0.20736701  0.16228436    -0.44000
C101        C  0.31787393  0.10320946  0.33269901    -0.00400
C102        C  0.34240240  0.14666627  0.33644420    -0.12300
C103        C  0.37092837  0.15168075  0.37129353     0.01800
C104        C  0.37588643  0.11218174  0.40337913    -0.00500
C105        C  0.34891331  0.07032297  0.40131843    -0.12200
C106        C  0.31987301  0.06573533  0.36658608     0.01700
H107        H  0.34077135  0.17598484  0.31070947     0.14700
H108        H  0.35145215  0.04027575  0.42627781     0.14700
C109        C  0.29441231  0.02105490  0.36589406     0.36300
C110        C  0.39650007  0.19651826  0.37129837     0.36200
N111        N  0.27445605  0.98468872  0.36724524    -0.44000
N112        N  0.41659502  0.23278403  0.37096833    -0.44000
C113        C  0.32850396  0.10254879  0.16887405    -0.00400
C114        C  0.32937534  0.14551268  0.14007523    -0.12300
C115        C  0.35736210  0.14851533  0.10324896     0.01800
C116        C  0.38630647  0.10825898  0.09415924    -0.00500
C117        C  0.38625501  0.06556382  0.12274352    -0.12200
C118        C  0.35822501  0.06246600  0.15972419     0.01700
H119        H  0.30928201  0.17826855  0.14579018     0.14700
H120        H  0.40880978  0.03454965  0.11661247     0.14700
C121        C  0.36131792  0.01774874  0.18803785     0.36300
C122        C  0.35480540  0.19332513  0.07499397     0.36200
N123        N  0.36381028  0.98195167  0.21071090    -0.44000
N124        N  0.35261184  0.22918296  0.05237548    -0.44000
C125        C  0.82093924  0.24293623  0.34037238    -0.00400
C126        C  0.82157768  0.03202410  0.37013921    -0.12300
C127        C  0.85162663  0.03167265  0.40435916     0.01800
C128        C  0.88190615  0.24131024  0.41023561    -0.00500
C129        C  0.87962424  0.20077123  0.38277672    -0.12200
C130        C  0.84990401  0.20116835  0.34828289     0.01700
H131        H  0.79986375  0.06419425  0.36701912     0.14700
H132        H  0.90224393  0.16911140  0.38733662     0.14700
C133        C  0.85161843  0.15896526  0.32021022     0.36300
C134        C  0.84997116  0.07305204  0.43333344     0.36200
N135        N  0.85329010  0.12532775  0.29758163    -0.44000
N136        N  0.84841743  0.10618783  0.45651559    -0.44000
C137        C  0.88066607  0.24759436  0.10022379    -0.00400
C138        C  0.85117705  0.20877066  0.11002385    -0.12300
C139        C  0.82436532  0.20906637  0.14787665     0.01800
C140        C  0.82686401  0.24875554  0.17661058    -0.00500
C141        C  0.85545314  0.28804524  0.16646265    -0.12200
C142        C  0.88220893  0.28795270  0.12880466     0.01700
H143        H  0.84997063  0.17738523  0.08876678     0.14700
H144        H  0.85778545  0.31827854  0.18884981     0.14700
C145        C  0.91351719  0.32763524  0.12266405     0.36300
C146        C  0.79707199  0.16648254  0.15797585     0.36200
N147        N  0.93899245  0.35899929  0.11773517    -0.44000
N148        N  0.77571510  0.13180491  0.16572174    -0.44000
C149        C  0.61624761  0.12071374  0.31629432    -0.00400
C150        C  0.58915339  0.07940465  0.32355369    -0.12300
C151        C  0.56127432  0.07552954  0.36038777     0.01800
C152        C  0.55952029  0.11422304  0.39063876    -0.00500
C153        C  0.58741433  0.15526311  0.38361860    -0.12200
C154        C  0.61588359  0.15858957  0.34695683     0.01700
H155        H  0.58932297  0.05033258  0.29982087     0.14700
H156        H  0.58672649  0.18506334  0.40662158     0.14700
C157        C  0.64279712  0.20223163  0.34044128     0.36300
C158        C  0.53364038  0.03235428  0.36483977     0.36200
N159        N  0.66432815  0.23725714  0.33531590    -0.44000
N160        N  0.51189411  0.99736885  0.36796476    -0.44000
C161        C  0.56785891  0.11434547  0.08196842    -0.00400
C162        C  0.59408412  0.15670430  0.08302582    -0.12300
C163        C  0.62316489  0.16346276  0.11727009     0.01800
C164        C  0.62613132  0.12694754  0.15273688    -0.00500
C165        C  0.60084152  0.08335536  0.14996303    -0.12200
C166        C  0.57211471  0.07682094  0.11553838     0.01700
H167        H  0.59139649  0.18541607  0.05685589     0.14700
H168        H  0.60250762  0.05443491  0.17602177     0.14700
C169        C  0.54537083  0.03272285  0.11727044     0.36300
C170        C  0.64826352  0.20852108  0.11306142     0.36200
N171        N  0.52379478  0.99752033  0.11873990    -0.44000
N172        N  0.66763836  0.24517458  0.10764835    -0.44000
C173        C  0.65237895  0.13023821  0.69541912     0.86200
C174        C  0.68152077  0.17540891  0.70381473    -0.54000
C175        C  0.70347977  0.17208109  0.74285171     0.09100
C176        C  0.69189811  0.12540893  0.77101303     0.20100
C177        C  0.68420128  0.08514952  0.70199613    -0.54700
C178        C  0.70560038  0.08277190  0.74119570     0.09300
C179        C  0.62123892  0.12748727  0.73535295    -0.54300
C180        C  0.64156716  0.12499689  0.77453280     0.09800
H181        H  0.68622585  0.20604903  0.68099173     0.14300
H182        H  0.70622459  0.12352460  0.80382420     0.00100
H183        H  0.68987523  0.05910891  0.67629616     0.14600
H184        H  0.58566661  0.12726359  0.73284712     0.14400
C185        C  0.79364648  0.24729422  0.79824682     0.86200
C186        C  0.76380143  0.04431489  0.79063431    -0.54000
C187        C  0.74145728  0.04567933  0.75201384     0.09100
C188        C  0.75267329  0.25101526  0.72379544     0.20100
C189        C  0.76182131  0.20378663  0.79281912    -0.54700
C190        C  0.73953207  0.20622633  0.75389221     0.09300
C191        C  0.82400003  0.24740178  0.75773844    -0.54300
C192        C  0.80278555  0.24850413  0.71913145     0.09800
H193        H  0.75892282  0.07263223  0.81412417     0.14300
H194        H  0.73812714  0.25302352  0.69117451     0.00100
H195        H  0.75673084  0.17537703  0.81868542     0.14600
H196        H  0.85964942  0.24634092  0.75943596     0.14400
C197        C  0.29782689  0.09994495  0.70970155     0.86200
C198        C  0.26905293  0.05336369  0.71285801    -0.54000
C199        C  0.24268559  0.04929294  0.74962428     0.09100
C200        C  0.24768586  0.09296714  0.78081165     0.20100
C201        C  0.26428977  0.14350463  0.71452551    -0.54700
C202        C  0.23820923  0.14006047  0.75122569     0.09300
C203        C  0.32313157  0.09851323  0.75239971    -0.54300
C204        C  0.29758617  0.09537135  0.78965981     0.09800
H205        H  0.26715315  0.02767847  0.68638157     0.14300
H206        H  0.22631708  0.09032267  0.81069119     0.00100
H207        H  0.25795330  0.17316797  0.69012572     0.14600
H208        H  0.35860087  0.10224997  0.75311945     0.14400
C209        C  0.14227297  0.22479022  0.71785718     0.86200
C210        C  0.17532222  0.01765021  0.71694655    -0.54000
C211        C  0.20461737  0.01513665  0.75036727     0.09100
C212        C  0.19720192  0.22029201  0.78316504     0.20100
C213        C  0.17018102  0.17656300  0.72109710    -0.54700
C214        C  0.19928882  0.17395686  0.75465099     0.09300
C215        C  0.12008172  0.22791697  0.76315298    -0.54300
C216        C  0.14840617  0.22567590  0.79722115     0.09800
H217        H  0.17638314  0.04698461  0.69117281     0.14300
H218        H  0.22031394  0.21799808  0.81057177     0.00100
H219        H  0.16989641  0.14869998  0.69622487     0.14600
H220        H  0.08526461  0.23409627  0.76906759     0.14400
O221        O  0.01731454  0.02468828  0.54750144    -0.72000
O222        O  0.93139288  0.02998299  0.95836085    -0.72300
O223        O  0.92978418  0.03197862  0.54586157    -0.72100
O224        O  0.01973946  0.02378660  0.95981169    -0.72100
O225        O  0.01888929  0.19255145  0.96516441    -0.72100
O226        O  0.92414285  0.20109022  0.54875795    -0.72100
O227        O  0.93026694  0.19869316  0.96069717    -0.72000
O228        O  0.01160715  0.19360984  0.55320377    -0.72200
V229        V  0.97451233  0.02598303  0.50280330     1.35200
V230        V  0.97129589  0.19797354  0.50670152     1.35200
C231        C  0.02783608  0.23316489  0.56636731     0.77200
C232        C  0.91587455  0.24008318  0.94457094     0.77300
C233        C  0.91227826  0.24328594  0.56290934     0.77100
C234        C  0.03550398  0.23218699  0.94823323     0.77100
O235        O  0.43291573  0.06981692  0.54097734    -0.72000
O236        O  0.51499757  0.07259687  0.94595087    -0.72300
O237        O  0.52052331  0.07186995  0.53410344    -0.72100
O238        O  0.42686032  0.07138237  0.95301745    -0.72100
O239        O  0.42535384  0.15265744  0.95002409    -0.72100
O240        O  0.51736279  0.15316229  0.53185151    -0.72100
O241        O  0.51350493  0.15388385  0.94402703    -0.72000
O242        O  0.42961649  0.15105774  0.53807343    -0.72200
V243        V  0.47381814  0.07298150  0.49338384     1.35200
V244        V  0.47147539  0.15110150  0.49103104     1.35200
C245        C  0.41737055  0.10991029  0.55599749     0.77200
C246        C  0.52817613  0.11351233  0.92855204     0.77300
C247        C  0.53414559  0.11278717  0.54760573     0.77100
C248        C  0.41051156  0.11212992  0.93717219     0.77100
C249        C  0.07130428  0.23150439  0.91437859    -0.00400
C250        C  0.07640983  0.02477934  0.88696020    -0.12300
C251        C  0.10577621  0.02535527  0.85135605     0.01800
C252        C  0.13085420  0.23193687  0.84220572    -0.00500
C253        C  0.12910130  0.19019631  0.87166762    -0.12200
C254        C  0.09951786  0.18958152  0.90766981     0.01700
H255        H  0.05568264  0.05766995  0.89179320     0.14700
H256        H  0.14868896  0.15693693  0.86495991     0.14700
C257        C  0.09862637  0.14555031  0.93677959     0.36300
C258        C  0.10697231  0.06958141  0.82232813     0.36200
N259        N  0.09816369  0.11039480  0.96032167    -0.44000
N260        N  0.10767827  0.10457064  0.79861680    -0.44000
C261        C  0.11243678  0.22630521  0.67781344    -0.00400
C262        C  0.06669650  0.22002968  0.68292381    -0.12300
C263        C  0.03904254  0.22201783  0.64696067     0.01800
C264        C  0.05654202  0.23082256  0.60448054    -0.00500
C265        C  0.10198123  0.23482930  0.59840026    -0.12200
C266        C  0.13005442  0.98122930  0.63435913     0.01700
H267        H  0.05171563  0.21157542  0.71456573     0.14700
H268        H  0.11560551  0.98953211  0.56543772     0.14700
C269        C  0.17684501  0.98118359  0.62534302     0.36300
C270        C  0.99272322  0.21418570  0.65483322     0.36200
N271        N  0.21432087  0.98092665  0.61813026    -0.44000
N272        N  0.95588446  0.20736722  0.66228436    -0.44000
C273        C  0.31787397  0.10320951  0.83269900    -0.00400
C274        C  0.34240242  0.14666631  0.83644419    -0.12300
C275        C  0.37092839  0.15168080  0.87129351     0.01800
C276        C  0.37588651  0.11218177  0.90337911    -0.00500
C277        C  0.34891342  0.07032300  0.90131839    -0.12200
C278        C  0.31987308  0.06573538  0.86658607     0.01700
H279        H  0.34077131  0.17598489  0.81070946     0.14700
H280        H  0.35145227  0.04027575  0.92627777     0.14700
C281        C  0.29441227  0.02105506  0.86589410     0.36300
C282        C  0.39650011  0.19651840  0.87129831     0.36200
N283        N  0.27445600  0.98468886  0.86724526    -0.44000
N284        N  0.41659500  0.23278410  0.87096829    -0.44000
C285        C  0.32850400  0.10254878  0.66887409    -0.00400
C286        C  0.32937535  0.14551270  0.64007526    -0.12300
C287        C  0.35736214  0.14851529  0.60324899     0.01800
C288        C  0.38630649  0.10825898  0.59415927    -0.00500
C289        C  0.38625512  0.06556384  0.62274357    -0.12200
C290        C  0.35822504  0.06246603  0.65972423     0.01700
H291        H  0.30928199  0.17826845  0.64579012     0.14700
H292        H  0.40880983  0.03454974  0.61661254     0.14700
C293        C  0.36131791  0.01774878  0.68803782     0.36300
C294        C  0.35480536  0.19332507  0.57499395     0.36200
N295        N  0.36381031  0.98195175  0.71071096    -0.44000
N296        N  0.35261186  0.22918287  0.55237545    -0.44000
C297        C  0.82093924  0.24293619  0.84037238    -0.00400
C298        C  0.82157770  0.03202413  0.87013919    -0.12300
C299        C  0.85162665  0.03167272  0.90435914     0.01800
C300        C  0.88190608  0.24131018  0.91023568    -0.00500
C301        C  0.87962418  0.20077113  0.88277676    -0.12200
C302        C  0.84990394  0.20116833  0.84828293     0.01700
H303        H  0.79986372  0.06419424  0.86701914     0.14700
H304        H  0.90224387  0.16911140  0.88733658     0.14700
C305        C  0.85161845  0.15896523  0.82021019     0.36300
C306        C  0.84997116  0.07305217  0.93333345     0.36200
N307        N  0.85329021  0.12532774  0.79758167    -0.44000
N308        N  0.84841746  0.10618800  0.95651555    -0.44000
C309        C  0.88066613  0.24759425  0.60022381    -0.00400
C310        C  0.85117710  0.20877057  0.61002387    -0.12300
C311        C  0.82436532  0.20906628  0.64787664     0.01800
C312        C  0.82686400  0.24875549  0.67661055    -0.00500
C313        C  0.85545318  0.28804517  0.66646264    -0.12200
C314        C  0.88220897  0.28795260  0.62880466     0.01700
H315        H  0.84997068  0.17738512  0.58876674     0.14700
H316        H  0.85778558  0.31827845  0.68884978     0.14700
C317        C  0.91351721  0.32763516  0.62266404     0.36300
C318        C  0.79707190  0.16648248  0.65797583     0.36200
N319        N  0.93899240  0.35899930  0.61773516    -0.44000
N320        N  0.77571493  0.13180490  0.66572172    -0.44000
C321        C  0.61624754  0.12071375  0.81629422    -0.00400
C322        C  0.58915328  0.07940472  0.82355359    -0.12300
C323        C  0.56127422  0.07552957  0.86038766     0.01800
C324        C  0.55952026  0.11422309  0.89063869    -0.00500
C325        C  0.58741439  0.15526304  0.88361857    -0.12200
C326        C  0.61588360  0.15858959  0.84695678     0.01700
H327        H  0.58932289  0.05033251  0.79982077     0.14700
H328        H  0.58672665  0.18506320  0.90662167     0.14700
C329        C  0.64279707  0.20223168  0.84044124     0.36300
C330        C  0.53364039  0.03235430  0.86483975     0.36200
N331        N  0.66432796  0.23725737  0.83531591    -0.44000
N332        N  0.51189410  0.99736882  0.86796480    -0.44000
C333        C  0.56785879  0.11434554  0.58196848    -0.00400
C334        C  0.59408398  0.15670440  0.58302588    -0.12300
C335        C  0.62316482  0.16346288  0.61727008     0.01800
C336        C  0.62613136  0.12694757  0.65273684    -0.00500
C337        C  0.60084152  0.08335543  0.64996303    -0.12200
C338        C  0.57211469  0.07682100  0.61553841     0.01700
H339        H  0.59139625  0.18541622  0.55685592     0.14700
H340        H  0.60250761  0.05443499  0.67602177     0.14700
C341        C  0.54537088  0.03272287  0.61727046     0.36300
C342        C  0.64826342  0.20852129  0.61306150     0.36200
N343        N  0.52379479  0.99752035  0.61873992    -0.44000
N344        N  0.66763833  0.24517474  0.60764864    -0.44000
C345        C  0.65238098  0.38024416  0.19542122     0.86200
C346        C  0.68155639  0.42539213  0.20380053    -0.54000
C347        C  0.70349612  0.42207673  0.24284973     0.09100
C348        C  0.69189694  0.37541477  0.27101711     0.20100
C349        C  0.68418638  0.33514257  0.20200602    -0.54700
C350        C  0.70558733  0.33276575  0.24120422     0.09300
C351        C  0.62123959  0.37751692  0.23535399    -0.54300
C352        C  0.64156592  0.37502630  0.27453521     0.09800
H353        H  0.68635127  0.45596179  0.18092819     0.14300
H354        H  0.70622316  0.37352634  0.30382853     0.00100
H355        H  0.68985407  0.30909738  0.17630777     0.14600
H356        H  0.58566726  0.37729965  0.23284576     0.14400
C357        C  0.79364365  0.49729282  0.29827318     0.86200
C358        C  0.76380170  0.29431146  0.29062754    -0.54000
C359        C  0.74145138  0.29567863  0.25201064     0.09100
C360        C  0.75268978  0.50101880  0.22381070     0.20100
C361        C  0.76182459  0.45378243  0.29283281    -0.54700
C362        C  0.73954632  0.45622251  0.25389907     0.09300
C363        C  0.82400781  0.49740682  0.25777264    -0.54300
C364        C  0.80280284  0.49851048  0.21916026     0.09800
H365        H  0.75891542  0.32261812  0.31412654     0.14300
H366        H  0.73815042  0.50303771  0.19118746     0.00100
H367        H  0.75673119  0.42536969  0.31869566     0.14600
H368        H  0.85965655  0.49634868  0.25947899     0.14400
C369        C  0.29781476  0.34996550  0.20970162     0.86200
C370        C  0.26904619  0.30338058  0.21285350    -0.54000
C371        C  0.24267970  0.29930085  0.24961918     0.09100
C372        C  0.24767483  0.34297118  0.28081173     0.20100
C373        C  0.26427387  0.39352121  0.21453071    -0.54700
C374        C  0.23819283  0.39006770  0.25123093     0.09300
C375        C  0.32311963  0.34853217  0.25239954    -0.54300
C376        C  0.29757510  0.34538096  0.28965953     0.09800
H377        H  0.26715045  0.27769773  0.18637478     0.14300
H378        H  0.22630677  0.34031894  0.31069140     0.00100
H379        H  0.25794005  0.42319212  0.19013745     0.14600
H380        H  0.35858850  0.35227405  0.25311950     0.14400
C381        C  0.14226974  0.47481921  0.21787156     0.86200
C382        C  0.17532546  0.26764501  0.21693544    -0.54000
C383        C  0.20461858  0.26513511  0.25035815     0.09100
C384        C  0.19719335  0.47029675  0.28318340     0.20100
C385        C  0.17016578  0.42658259  0.22111081    -0.54700
C386        C  0.19927234  0.42396413  0.25466577     0.09300
C387        C  0.12007550  0.47795091  0.26316491    -0.54300
C388        C  0.14839717  0.47569765  0.29723507     0.09800
H389        H  0.17638030  0.29698474  0.19116611     0.14300
H390        H  0.22030277  0.46799288  0.31059261     0.00100
H391        H  0.16987777  0.39872414  0.19623464     0.14600
H392        H  0.08525913  0.48414402  0.26907530     0.14400
O393        O  0.01731949  0.27465861  0.04748504    -0.72000
O394        O  0.93140835  0.27994427  0.45833809    -0.72300
O395        O  0.92978834  0.28194952  0.04583853    -0.72100
O396        O  0.01975183  0.27374599  0.45979762    -0.72100
O397        O  0.01888504  0.44259416  0.46518247    -0.72100
O398        O  0.92414738  0.45112662  0.04877897    -0.72100
O399        O  0.93026497  0.44872561  0.46072114    -0.72000
O400        O  0.01160971  0.44365712  0.05322021    -0.72200
V401        V  0.97452114  0.27594798  0.00278451     1.35200
V402        V  0.97129614  0.44801356  0.00672111     1.35200
C403        C  0.02784394  0.48321344  0.06637448     0.77200
C404        C  0.91585816  0.49011233  0.44460233     0.77300
C405        C  0.91228893  0.49331995  0.06293810     0.77100
C406        C  0.03548958  0.48222916  0.44824021     0.77100
O407        O  0.43291764  0.31983106  0.04099098    -0.72000
O408        O  0.51497792  0.32260389  0.44594368    -0.72300
O409        O  0.52052442  0.32187813  0.03409675    -0.72100
O410        O  0.42684156  0.32139205  0.45303178    -0.72100
O411        O  0.42536397  0.40266678  0.45000450    -0.72100
O412        O  0.51733400  0.40316870  0.03187376    -0.72100
O413        O  0.51351722  0.40388996  0.44404618    -0.72000
O414        O  0.42958794  0.40107086  0.03805643    -0.72200
V415        V  0.47380908  0.32299088  0.99338727     1.35200
V416        V  0.47146705  0.40111033  0.99103211     1.35200
C417        C  0.41735658  0.35992564  0.05599561     0.77200
C418        C  0.52817434  0.36351896  0.42855871     0.77300
C419        C  0.53413078  0.36279467  0.04761534     0.77100
C420        C  0.41050799  0.36213885  0.43716821     0.77100
C421        C  0.07128990  0.48154096  0.41438657    -0.00400
C422        C  0.07641221  0.27473730  0.38694170    -0.12300
C423        C  0.10577548  0.27531586  0.35133521     0.01800
C424        C  0.13084376  0.48196005  0.34221814    -0.00500
C425        C  0.12907234  0.44021390  0.37167154    -0.12200
C426        C  0.09948824  0.43960627  0.40767213     0.01700
H427        H  0.05568018  0.30762438  0.39177310     0.14700
H428        H  0.14864499  0.40694531  0.36495734     0.14700
C429        C  0.09857706  0.39556729  0.43677178     0.36300
C430        C  0.10696046  0.31953949  0.32230324     0.36200
N431        N  0.09809626  0.36040592  0.46030644    -0.44000
N432        N  0.10765714  0.35452690  0.29858930    -0.44000
C433        C  0.11243662  0.47634674  0.17782600    -0.00400
C434        C  0.06669707  0.47006463  0.18293245    -0.12300
C435        C  0.03904655  0.47205267  0.14696677     0.01800
C436        C  0.05654766  0.48087483  0.10448929    -0.00500
C437        C  0.10198656  0.48488946  0.09841293    -0.12200
C438        C  0.13006686  0.23122807  0.13433715     0.01700
H439        H  0.05171624  0.46159809  0.21457261     0.14700
H440        H  0.11561138  0.23953500  0.06541690     0.14700
C441        C  0.17685662  0.23121130  0.12531770     0.36300
C442        C  0.99273081  0.46418913  0.15483235     0.36200
N443        N  0.21433163  0.23097954  0.11810042    -0.44000
N444        N  0.95589554  0.45733995  0.16227630    -0.44000
C445        C  0.31786361  0.35321454  0.33269892    -0.00400
C446        C  0.34237998  0.39667901  0.33645074    -0.12300
C447        C  0.37091139  0.40169271  0.37129590     0.01800
C448        C  0.37588289  0.36218749  0.40337433    -0.00500
C449        C  0.34892252  0.32031847  0.40130601    -0.12200
C450        C  0.31988176  0.31572857  0.36657457     0.01700
H451        H  0.34073750  0.42600379  0.31072207     0.14700
H452        H  0.35147326  0.29026389  0.42625727     0.14700
C453        C  0.29444424  0.27103182  0.36586811     0.36300
C454        C  0.39647641  0.44653550  0.37130002     0.36200
N455        N  0.27450826  0.23465112  0.36720526    -0.44000
N456        N  0.41656674  0.48280490  0.37096605    -0.44000
C457        C  0.32849174  0.35257143  0.16887439    -0.00400
C458        C  0.32935299  0.39552859  0.14006760    -0.12300
C459        C  0.35734115  0.39853085  0.10324176     0.01800
C460        C  0.38629254  0.35827821  0.09415797    -0.00500
C461        C  0.38624873  0.31558935  0.12274930    -0.12200
C462        C  0.35821998  0.31249322  0.15973044     0.01700
H463        H  0.30924891  0.42827824  0.14577496     0.14700
H464        H  0.40880823  0.28457815  0.11662310     0.14700
C465        C  0.36132002  0.26778037  0.18804898     0.36300
C466        C  0.35477952  0.44333651  0.07498216     0.36200
N467        N  0.36381850  0.23198617  0.21072494    -0.44000
N468        N  0.35258263  0.47919173  0.05236064    -0.44000
C469        C  0.82092392  0.49293393  0.34040698    -0.00400
C470        C  0.82161089  0.28202298  0.37010783    -0.12300
C471        C  0.85165840  0.28165912  0.40432867     0.01800
C472        C  0.88188596  0.49132719  0.41027219    -0.00500
C473        C  0.87962488  0.45079396  0.38280469    -0.12200
C474        C  0.84990527  0.45118025  0.34831161     0.01700
H475        H  0.79991609  0.31420921  0.36697839     0.14700
H476        H  0.90226111  0.41914836  0.38735666     0.14700
C477        C  0.85163916  0.40898284  0.32023285     0.36300
C478        C  0.85002126  0.32304545  0.43329571     0.36200
N479        N  0.85332770  0.37534956  0.29760007    -0.44000
N480        N  0.84848427  0.35618546  0.45647359    -0.44000
C481        C  0.88068495  0.49762044  0.10025734    -0.00400
C482        C  0.85118939  0.45880090  0.11004640    -0.12300
C483        C  0.82438203  0.45908688  0.14790139     0.01800
C484        C  0.82688980  0.49876455  0.17664594    -0.00500
C485        C  0.85548990  0.53804747  0.16651201    -0.12200
C486        C  0.88224401  0.53796218  0.12885343     0.01700
H487        H  0.84997466  0.42742571  0.08877874     0.14700
H488        H  0.85783037  0.56826988  0.18890906     0.14700
C489        C  0.91356772  0.57763084  0.12272756     0.36300
C490        C  0.79708594  0.41650288  0.15799196     0.36200
N491        N  0.93905569  0.60898309  0.11781096    -0.44000
N492        N  0.77572835  0.38182409  0.16573114    -0.44000
C493        C  0.61624567  0.37073866  0.31629740    -0.00400
C494        C  0.58915290  0.32942785  0.32355347    -0.12300
C495        C  0.56127686  0.32554402  0.36038971     0.01800
C496        C  0.55952185  0.36423219  0.39064626    -0.00500
C497        C  0.58741764  0.40527208  0.38363127    -0.12200
C498        C  0.61588649  0.40860513  0.34696883     0.01700
H499        H  0.58932253  0.30035963  0.29981695     0.14700
H500        H  0.58673238  0.43506683  0.40663953     0.14700
C501        C  0.64280898  0.45224136  0.34046574     0.36300
C502        C  0.53365006  0.28236298  0.36483894     0.36200
N503        N  0.66434838  0.48726167  0.33535274    -0.44000
N504        N  0.51191149  0.24737104  0.36795989    -0.44000
C505        C  0.56784580  0.36435775  0.08197745    -0.00400
C506        C  0.59400515  0.40676508  0.08307919    -0.12300
C507        C  0.62307852  0.41353261  0.11732606     0.01800
C508        C  0.62612521  0.37696205  0.15274257    -0.00500
C509        C  0.60088817  0.33333361  0.14993390    -0.12200
C510        C  0.57216111  0.32679566  0.11550873     0.01700
H511        H  0.59126266  0.43551566  0.05694733     0.14700
H512        H  0.60259392  0.30438593  0.17596688     0.14700
C513        C  0.54547424  0.28265287  0.11720615     0.36300
C514        C  0.64805432  0.45868381  0.11318923     0.36200
N515        N  0.52394217  0.24741515  0.11865105    -0.44000
N516        N  0.66733141  0.49541170  0.10782576    -0.44000
C517        C  0.65238099  0.38024408  0.69542121     0.86200
C518        C  0.68155632  0.42539205  0.70380058    -0.54000
C519        C  0.70349604  0.42207670  0.74284974     0.09100
C520        C  0.69189693  0.37541470  0.77101712     0.20100
C521        C  0.68418644  0.33514251  0.70200601    -0.54700
C522        C  0.70558737  0.33276572  0.74120423     0.09300
C523        C  0.62123960  0.37751678  0.73535397    -0.54300
C524        C  0.64156590  0.37502622  0.77453520     0.09800
H525        H  0.68635109  0.45596190  0.68092826     0.14300
H526        H  0.70622316  0.37352625  0.80382853     0.00100
H527        H  0.68985416  0.30909737  0.67630781     0.14600
H528        H  0.58566726  0.37729954  0.73284571     0.14400
C529        C  0.79364360  0.49729281  0.79827319     0.86200
C530        C  0.76380180  0.29431149  0.79062752    -0.54000
C531        C  0.74145146  0.29567863  0.75201062     0.09100
C532        C  0.75268969  0.50101877  0.72381069     0.20100
C533        C  0.76182450  0.45378244  0.79283279    -0.54700
C534        C  0.73954620  0.45622252  0.75389910     0.09300
C535        C  0.82400771  0.49740680  0.75777262    -0.54300
C536        C  0.80280277  0.49851042  0.71916027     0.09800
H537        H  0.75891547  0.32261807  0.81412652     0.14300
H538        H  0.73815033  0.50303770  0.69118749     0.00100
H539        H  0.75673112  0.42536959  0.81869562     0.14600
H540        H  0.85965654  0.49634880  0.75947895     0.14400
C541        C  0.29781475  0.34996557  0.70970159     0.86200
C542        C  0.26904624  0.30338059  0.71285348    -0.54000
C543        C  0.24267981  0.29930080  0.74961922     0.09100
C544        C  0.24767487  0.34297117  0.78081172     0.20100
C545        C  0.26427380  0.39352123  0.71453070    -0.54700
C546        C  0.23819274  0.39006768  0.75123090     0.09300
C547        C  0.32311964  0.34853233  0.75239947    -0.54300
C548        C  0.29757515  0.34538104  0.78965947     0.09800
H549        H  0.26715049  0.27769785  0.68637477     0.14300
H550        H  0.22630688  0.34031883  0.81069143     0.00100
H551        H  0.25794005  0.42319227  0.69013748     0.14600
H552        H  0.35858853  0.35227421  0.75311941     0.14400
C553        C  0.14226976  0.47481938  0.71787151     0.86200
C554        C  0.17532554  0.26764501  0.71693546    -0.54000
C555        C  0.20461868  0.26513507  0.75035815     0.09100
C556        C  0.19719332  0.47029681  0.78318339     0.20100
C557        C  0.17016570  0.42658267  0.72111079    -0.54700
C558        C  0.19927226  0.42396417  0.75466579     0.09300
C559        C  0.12007550  0.47795113  0.76316484    -0.54300
C560        C  0.14839715  0.47569775  0.79723502     0.09800
H561        H  0.17638038  0.29698483  0.69116611     0.14300
H562        H  0.22030269  0.46799292  0.81059264     0.00100
H563        H  0.16987759  0.39872422  0.69623470     0.14600
H564        H  0.08525912  0.48414425  0.76907521     0.14400
O565        O  0.01731954  0.27465858  0.54748504    -0.72000
O566        O  0.93140825  0.27994425  0.95833813    -0.72300
O567        O  0.92978841  0.28194945  0.54583855    -0.72100
O568        O  0.01975175  0.27374603  0.95979755    -0.72100
O569        O  0.01888506  0.44259418  0.96518246    -0.72100
O570        O  0.92414728  0.45112667  0.54877897    -0.72100
O571        O  0.93026501  0.44872560  0.96072114    -0.72000
O572        O  0.01160971  0.44365705  0.55322025    -0.72200
V573        V  0.97452120  0.27594794  0.50278452     1.35200
V574        V  0.97129611  0.44801354  0.50672113     1.35200
C575        C  0.02784396  0.48321338  0.56637449     0.77200
C576        C  0.91585818  0.49011232  0.94460233     0.77300
C577        C  0.91228883  0.49332000  0.56293808     0.77100
C578        C  0.03548960  0.48222914  0.94824020     0.77100
O579        O  0.43291752  0.31983097  0.54099093    -0.72000
O580        O  0.51497797  0.32260388  0.94594366    -0.72300
O581        O  0.52052431  0.32187817  0.53409680    -0.72100
O582        O  0.42684155  0.32139201  0.95303187    -0.72100
O583        O  0.42536405  0.40266675  0.95000439    -0.72100
O584        O  0.51733393  0.40316872  0.53187383    -0.72100
O585        O  0.51351730  0.40388996  0.94404617    -0.72000
O586        O  0.42958796  0.40107077  0.53805653    -0.72200
V587        V  0.47380901  0.32299087  0.49338727     1.35200
V588        V  0.47146698  0.40111031  0.49103218     1.35200
C589        C  0.41735656  0.35992553  0.55599565     0.77200
C590        C  0.52817442  0.36351892  0.92855871     0.77300
C591        C  0.53413068  0.36279467  0.54761540     0.77100
C592        C  0.41050800  0.36213881  0.93716822     0.77100
C593        C  0.07128993  0.48154091  0.91438658    -0.00400
C594        C  0.07641230  0.27473732  0.88694170    -0.12300
C595        C  0.10577561  0.27531588  0.85133524     0.01800
C596        C  0.13084372  0.48196001  0.84221810    -0.00500
C597        C  0.12907230  0.44021378  0.87167147    -0.12200
C598        C  0.09948825  0.43960620  0.90767213     0.01700
H599        H  0.05568026  0.30762439  0.89177308     0.14700
H600        H  0.14864487  0.40694525  0.86495722     0.14700
C601        C  0.09857712  0.39556720  0.93677181     0.36300
C602        C  0.10696058  0.31953950  0.82230328     0.36200
N603        N  0.09809636  0.36040580  0.96030645    -0.44000
N604        N  0.10765724  0.35452690  0.79858927    -0.44000
C605        C  0.11243667  0.47634685  0.67782597    -0.00400
C606        C  0.06669712  0.47006461  0.68293243    -0.12300
C607        C  0.03904658  0.47205267  0.64696678     0.01800
C608        C  0.05654767  0.48087486  0.60448931    -0.00500
C609        C  0.10198659  0.48488957  0.59841292    -0.12200
C610        C  0.13006685  0.23122803  0.63433713     0.01700
H611        H  0.05171633  0.46159802  0.71457259     0.14700
H612        H  0.11561140  0.23953523  0.56541691     0.14700
C613        C  0.17685666  0.23121119  0.62531768     0.36300
C614        C  0.99273078  0.46418917  0.65483239     0.36200
N615        N  0.21433160  0.23097940  0.61810044    -0.44000
N616        N  0.95589556  0.45733993  0.66227627    -0.44000
C617        C  0.31786367  0.35321448  0.83269887    -0.00400
C618        C  0.34238006  0.39667891  0.83645074    -0.12300
C619        C  0.37091146  0.40169258  0.87129589     0.01800
C620        C  0.37588289  0.36218736  0.90337435    -0.00500
C621        C  0.34892242  0.32031843  0.90130604    -0.12200
C622        C  0.31988164  0.31572852  0.86657459     0.01700
H623        H  0.34073761  0.42600375  0.81072211     0.14700
H624        H  0.35147308  0.29026380  0.92625737     0.14700
C625        C  0.29444413  0.27103177  0.86586810     0.36300
C626        C  0.39647650  0.44653536  0.87130002     0.36200
N627        N  0.27450828  0.23465094  0.86720527    -0.44000
N628        N  0.41656684  0.48280476  0.87096606    -0.44000
C629        C  0.32849172  0.35257139  0.66887436    -0.00400
C630        C  0.32935304  0.39552861  0.64006760    -0.12300
C631        C  0.35734123  0.39853084  0.60324179     0.01800
C632        C  0.38629259  0.35827820  0.59415802    -0.00500
C633        C  0.38624880  0.31558930  0.62274935    -0.12200
C634        C  0.35821995  0.31249316  0.65973043     0.01700
H635        H  0.30924896  0.42827820  0.64577497     0.14700
H636        H  0.40880831  0.28457822  0.61662320     0.14700
C637        C  0.36132003  0.26778027  0.68804898     0.36300
C638        C  0.35477961  0.44333658  0.57498216     0.36200
N639        N  0.36381861  0.23198608  0.71072493    -0.44000
N640        N  0.35258272  0.47919180  0.55236073    -0.44000
C641        C  0.82092386  0.49293395  0.84040699    -0.00400
C642        C  0.82161087  0.28202301  0.87010784    -0.12300
C643        C  0.85165840  0.28165905  0.90432872     0.01800
C644        C  0.88188596  0.49132714  0.91027222    -0.00500
C645        C  0.87962480  0.45079393  0.88280472    -0.12200
C646        C  0.84990514  0.45118018  0.84831169     0.01700
H647        H  0.79991621  0.31420913  0.86697840     0.14700
H648        H  0.90226108  0.41914830  0.88735661     0.14700
C649        C  0.85163903  0.40898283  0.82023290     0.36300
C650        C  0.85002131  0.32304548  0.93329573     0.36200
N651        N  0.85332774  0.37534962  0.79760000    -0.44000
N652        N  0.84848437  0.35618553  0.95647352    -0.44000
C653        C  0.88068485  0.49762056  0.60025734    -0.00400
C654        C  0.85118928  0.45880097  0.61004635    -0.12300
C655        C  0.82438203  0.45908688  0.64790143     0.01800
C656        C  0.82688972  0.49876451  0.67664597    -0.00500
C657        C  0.85548979  0.53804751  0.66651205    -0.12200
C658        C  0.88224392  0.53796219  0.62885348     0.01700
H659        H  0.84997452  0.42742599  0.58877863     0.14700
H660        H  0.85783019  0.56826992  0.68890907     0.14700
C661        C  0.91356760  0.57763098  0.62272753     0.36300
C662        C  0.79708588  0.41650282  0.65799190     0.36200
N663        N  0.93905542  0.60898325  0.61781070    -0.44000
N664        N  0.77572823  0.38182413  0.66573085    -0.44000
C665        C  0.61624561  0.37073871  0.81629738    -0.00400
C666        C  0.58915283  0.32942793  0.82355344    -0.12300
C667        C  0.56127681  0.32554409  0.86038969     0.01800
C668        C  0.55952189  0.36423224  0.89064627    -0.00500
C669        C  0.58741770  0.40527207  0.88363129    -0.12200
C670        C  0.61588653  0.40860515  0.84696885     0.01700
H671        H  0.58932252  0.30035967  0.79981701     0.14700
H672        H  0.58673248  0.43506691  0.90663963     0.14700
C673        C  0.64280909  0.45224129  0.84046576     0.36300
C674        C  0.53365011  0.28236297  0.86483895     0.36200
N675        N  0.66434852  0.48726158  0.83535275    -0.44000
N676        N  0.51191163  0.24737093  0.86795991    -0.44000
C677        C  0.56784577  0.36435772  0.58197748    -0.00400
C678        C  0.59400518  0.40676499  0.58307918    -0.12300
C679        C  0.62307858  0.41353254  0.61732605     0.01800
C680        C  0.62612523  0.37696195  0.65274257    -0.00500
C681        C  0.60088816  0.33333354  0.64993392    -0.12200
C682        C  0.57216110  0.32679558  0.61550873     0.01700
H683        H  0.59126273  0.43551557  0.55694730     0.14700
H684        H  0.60259385  0.30438589  0.67596693     0.14700
C685        C  0.54547430  0.28265275  0.61720612     0.36300
C686        C  0.64805436  0.45868373  0.61318924     0.36200
N687        N  0.52394226  0.24741499  0.61865106    -0.44000
N688        N  0.66733151  0.49541166  0.60782577    -0.44000
C689        C  0.65237706  0.63024088  0.19543824     0.86200
C690        C  0.68151442  0.67541467  0.20383774    -0.54000
C691        C  0.70347557  0.67208343  0.24287356     0.09100
C692        C  0.69189808  0.62540662  0.27103095     0.20100
C693        C  0.68420299  0.58515443  0.20201053    -0.54700
C694        C  0.70560259  0.58277356  0.24120970     0.09300
C695        C  0.62123805  0.62748260  0.23537259    -0.54300
C696        C  0.64156715  0.62499013  0.27455168     0.09800
H697        H  0.68620927  0.70606391  0.18102171     0.14300
H698        H  0.70622516  0.62352074  0.30384176     0.00100
H699        H  0.68987780  0.55911644  0.17630880     0.14600
H700        H  0.58566562  0.62725826  0.23286774     0.14400
C701        C  0.79363611  0.74730105  0.29827481     0.86200
C702        C  0.76380050  0.54430975  0.29064790    -0.54000
C703        C  0.74146019  0.54567991  0.25202519     0.09100
C704        C  0.75267147  0.75101685  0.22381820     0.20100
C705        C  0.76180924  0.70379516  0.29284676    -0.54700
C706        C  0.73952511  0.70623147  0.25391703     0.09300
C707        C  0.82399417  0.74740306  0.25776970    -0.54300
C708        C  0.80278424  0.74850393  0.21916027     0.09800
H709        H  0.75891695  0.57262129  0.31414197     0.14300
H710        H  0.73812889  0.75302079  0.19119548     0.00100
H711        H  0.75671410  0.67538869  0.31871487     0.14600
H712        H  0.85964324  0.74634094  0.25947125     0.14400
C713        C  0.29783712  0.59994118  0.20972875     0.86200
C714        C  0.26906536  0.55335899  0.21288308    -0.54000
C715        C  0.24269406  0.54928897  0.24964611     0.09100
C716        C  0.24768853  0.59296381  0.28083326     0.20100
C717        C  0.26429650  0.64349929  0.21454789    -0.54700
C718        C  0.23821304  0.64005568  0.25124596     0.09300
C719        C  0.32313730  0.59851176  0.25242935    -0.54300
C720        C  0.29758719  0.59537014  0.28968617     0.09800
H721        H  0.26716786  0.52767417  0.18640611     0.14300
H722        H  0.22631704  0.59031844  0.31071079     0.00100
H723        H  0.25795952  0.67315998  0.19014570     0.14600
H724        H  0.35860637  0.60224952  0.25315323     0.14400
C725        C  0.14227325  0.72478706  0.21788346     0.86200
C726        C  0.17533298  0.51766287  0.21695546    -0.54000
C727        C  0.20462369  0.51513881  0.25037996     0.09100
C728        C  0.19720484  0.72028468  0.28318900     0.20100
C729        C  0.17018456  0.67656152  0.22111768    -0.54700
C730        C  0.19929318  0.67395327  0.25467071     0.09300
C731        C  0.12008325  0.72790595  0.26318090    -0.54300
C732        C  0.14840925  0.72566435  0.29724805     0.09800
H733        H  0.17639685  0.54700512  0.19118878     0.14300
H734        H  0.22031879  0.71798860  0.31059368     0.00100
H735        H  0.16990022  0.64870098  0.19624329     0.14600
H736        H  0.08526621  0.73408260  0.26909766     0.14400
O737        O  0.01732990  0.52470435  0.04748532    -0.72000
O738        O  0.93138351  0.52997786  0.45836989    -0.72300
O739        O  0.92979787  0.53198576  0.04587030    -0.72100
O740        O  0.01973050  0.52378854  0.45979652    -0.72100
O741        O  0.01888387  0.69256128  0.46518292    -0.72100
O742        O  0.92414834  0.70109374  0.04878798    -0.72100
O743        O  0.93025968  0.69870100  0.46072637    -0.72000
O744        O  0.01161392  0.69361685  0.05322234    -0.72200
V745        V  0.97451480  0.52598833  0.00279996     1.35200
V746        V  0.97129579  0.69798085  0.00672535     1.35200
C747        C  0.02784125  0.73317216  0.06638745     0.77200
C748        C  0.91586589  0.74009096  0.44460060     0.77300
C749        C  0.91228169  0.74328867  0.06293929     0.77100
C750        C  0.03550046  0.73219664  0.44825379     0.77100
O751        O  0.43292208  0.56981521  0.04100109    -0.72000
O752        O  0.51499315  0.57260096  0.44596628    -0.72300
O753        O  0.52052853  0.57187245  0.03411768    -0.72100
O754        O  0.42685675  0.57138344  0.45304225    -0.72100
O755        O  0.42535450  0.65265837  0.45004334    -0.72100
O756        O  0.51735926  0.65316453  0.03187415    -0.72100
O757        O  0.51350572  0.65388765  0.44404904    -0.72000
O758        O  0.42961359  0.65105564  0.03809248    -0.72200
V759        V  0.47381909  0.57298296  0.99340327     1.35200
V760        V  0.47147427  0.65110281  0.99105170     1.35200
C761        C  0.41737322  0.60990753  0.05601977     0.77200
C762        C  0.52817379  0.61351677  0.42857009     0.77300
C763        C  0.53414633  0.61278977  0.04762392     0.77100
C764        C  0.41050892  0.61213081  0.43719548     0.77100
C765        C  0.07130422  0.73151086  0.41440236    -0.00400
C766        C  0.07641368  0.52477647  0.38695649    -0.12300
C767        C  0.10577972  0.52534853  0.35135220     0.01800
C768        C  0.13085909  0.73193076  0.34223309    -0.00500
C769        C  0.12909870  0.69019146  0.37169575    -0.12200
C770        C  0.09951330  0.68958322  0.40769629     0.01700
H771        H  0.05569276  0.55767163  0.39179183     0.14700
H772        H  0.14868124  0.65692793  0.36498938     0.14700
C773        C  0.09861359  0.64555249  0.43680640     0.36300
C774        C  0.10698185  0.56957666  0.32232717     0.36200
N775        N  0.09814294  0.61039754  0.46034898    -0.44000
N776        N  0.10769101  0.60456894  0.29861952    -0.44000
C777        C  0.11243784  0.72630723  0.17783879    -0.00400
C778        C  0.06669656  0.72004023  0.18294687    -0.12300
C779        C  0.03904477  0.72202936  0.14698188     0.01800
C780        C  0.05654672  0.73082959  0.10450202    -0.00500
C781        C  0.10198672  0.73483222  0.09842434    -0.12200
C782        C  0.13006965  0.48127793  0.13435149     0.01700
H783        H  0.05171279  0.71159151  0.21458843     0.14700
H784        H  0.11561887  0.48960240  0.06543111     0.14700
C785        C  0.17686002  0.48125071  0.12533545     0.36300
C786        C  0.99272517  0.71419823  0.15485195     0.36200
N787        N  0.21433576  0.48100858  0.11812223    -0.44000
N788        N  0.95588629  0.70737839  0.16230105    -0.44000
C789        C  0.31786800  0.60320823  0.33272750    -0.00400
C790        C  0.34238190  0.64667394  0.33648095    -0.12300
C791        C  0.37090939  0.65168855  0.37132884     0.01800
C792        C  0.37588066  0.61218198  0.40340580    -0.00500
C793        C  0.34891857  0.57031448  0.40133845    -0.12200
C794        C  0.31987936  0.56572519  0.36660581     0.01700
H795        H  0.34074126  0.67599808  0.31075161     0.14700
H796        H  0.35146722  0.54026093  0.42629094     0.14700
C797        C  0.29443459  0.52103352  0.36590088     0.36300
C798        C  0.39647100  0.69653351  0.37133835     0.36200
N799        N  0.27449052  0.48465867  0.36723741    -0.44000
N800        N  0.41655843  0.73280467  0.37101087    -0.44000
C801        C  0.32851663  0.60254506  0.16890376    -0.00400
C802        C  0.32939264  0.64551279  0.14011046    -0.12300
C803        C  0.35737471  0.64851492  0.10328137     0.01800
C804        C  0.38631211  0.60825477  0.09418398    -0.00500
C805        C  0.38625872  0.56555632  0.12276493    -0.12200
C806        C  0.35823292  0.56245927  0.15974903     0.01700
H807        H  0.30930713  0.67827269  0.14583290     0.14700
H808        H  0.40880882  0.53453936  0.11662889     0.14700
C809        C  0.36132525  0.51773996  0.18806050     0.36300
C810        C  0.35481982  0.69332949  0.07503237     0.36200
N811        N  0.36381766  0.48194107  0.21073130    -0.44000
N812        N  0.35262618  0.72919183  0.05241968    -0.44000
C813        C  0.82092539  0.74294319  0.34040346    -0.00400
C814        C  0.82156681  0.53200731  0.37015820    -0.12300
C815        C  0.85161408  0.53165418  0.40437916     0.01800
C816        C  0.88189322  0.74131740  0.41026780    -0.00500
C817        C  0.87960464  0.70077423  0.38281426    -0.12200
C818        C  0.84988511  0.70117169  0.34831958     0.01700
H819        H  0.79984778  0.56417330  0.36704333     0.14700
H820        H  0.90222035  0.66911113  0.38737755     0.14700
C821        C  0.85159708  0.65896549  0.32025045     0.36300
C822        C  0.84995282  0.57302829  0.43335912     0.36200
N823        N  0.85326787  0.62532535  0.29762480    -0.44000
N824        N  0.84839555  0.60615989  0.45654568    -0.44000
C825        C  0.88067036  0.74759422  0.10025521    -0.00400
C826        C  0.85118693  0.70876548  0.11005886    -0.12300
C827        C  0.82437490  0.70906061  0.14791163     0.01800
C828        C  0.82686718  0.74875388  0.17664170    -0.00500
C829        C  0.85545231  0.78804700  0.16649168    -0.12200
C830        C  0.88220899  0.78795489  0.12883401     0.01700
H831        H  0.84998493  0.67737715  0.08880467     0.14700
H832        H  0.85778070  0.81828280  0.18887680     0.14700
C833        C  0.91351523  0.82763943  0.12269231     0.36300
C834        C  0.79708738  0.66647310  0.15801593     0.36200
N835        N  0.93898972  0.85900421  0.11776238    -0.44000
N836        N  0.77573448  0.63179371  0.16576852    -0.44000
C837        C  0.61624769  0.62071059  0.31631313    -0.00400
C838        C  0.58916093  0.57939644  0.32357977    -0.12300
C839        C  0.56127857  0.57552638  0.36041172     0.01800
C840        C  0.55951703  0.61422751  0.39065558    -0.00500
C841        C  0.58740243  0.65527409  0.38362687    -0.12200
C842        C  0.61587124  0.65859834  0.34696462     0.01700
H843        H  0.58933656  0.55031805  0.29985267     0.14700
H844        H  0.58670692  0.68508203  0.40662232     0.14700
C845        C  0.64276864  0.70225164  0.34043427     0.36300
C846        C  0.53364562  0.53235044  0.36486627     0.36200
N847        N  0.66428595  0.73728655  0.33529502    -0.44000
N848        N  0.51189805  0.49736611  0.36799335    -0.44000
C849        C  0.56785865  0.61434851  0.08198681    -0.00400
C850        C  0.59408455  0.65670680  0.08304380    -0.12300
C851        C  0.62316490  0.66346518  0.11728847     0.01800
C852        C  0.62612874  0.62695140  0.15275646    -0.00500
C853        C  0.60083764  0.58336013  0.14998322    -0.12200
C854        C  0.57211224  0.57682510  0.11555766     0.01700
H855        H  0.59139850  0.68541747  0.05687277     0.14700
H856        H  0.60250288  0.55444004  0.17604223     0.14700
C857        C  0.54536867  0.53272672  0.11728851     0.36300
C858        C  0.64826847  0.70851967  0.11307755     0.36200
N859        N  0.52379330  0.49752364  0.11875641    -0.44000
N860        N  0.66764730  0.74517013  0.10766249    -0.44000
C861        C  0.65237712  0.63024082  0.69543816     0.86200
C862        C  0.68151449  0.67541462  0.70383767    -0.54000
C863        C  0.70347559  0.67208339  0.74287353     0.09100
C864        C  0.69189806  0.62540658  0.77103088     0.20100
C865        C  0.68420300  0.58515436  0.70201045    -0.54700
C866        C  0.70560258  0.58277352  0.74120964     0.09300
C867        C  0.62123806  0.62748253  0.73537246    -0.54300
C868        C  0.64156711  0.62499013  0.77455159     0.09800
H869        H  0.68620945  0.70606378  0.68102163     0.14300
H870        H  0.70622512  0.62352068  0.80384174     0.00100
H871        H  0.68987774  0.55911632  0.67630874     0.14600
H872        H  0.58566563  0.62725821  0.73286752     0.14400
C873        C  0.79363613  0.74730094  0.79827481     0.86200
C874        C  0.76380045  0.54430974  0.79064786    -0.54000
C875        C  0.74146016  0.54567988  0.75202516     0.09100
C876        C  0.75267146  0.75101684  0.72381821     0.20100
C877        C  0.76180927  0.70379504  0.79284675    -0.54700
C878        C  0.73952513  0.70623142  0.75391701     0.09300
C879        C  0.82399415  0.74740297  0.75776969    -0.54300
C880        C  0.80278426  0.74850392  0.71916026     0.09800
H881        H  0.75891694  0.57262132  0.81414192     0.14300
H882        H  0.73812887  0.75302083  0.69119551     0.00100
H883        H  0.75671413  0.67538859  0.81871484     0.14600
H884        H  0.85964332  0.74634079  0.75947124     0.14400
C885        C  0.29783717  0.59994111  0.70972877     0.86200
C886        C  0.26906539  0.55335893  0.71288309    -0.54000
C887        C  0.24269411  0.54928896  0.74964615     0.09100
C888        C  0.24768859  0.59296379  0.78083329     0.20100
C889        C  0.26429654  0.64349922  0.71454790    -0.54700
C890        C  0.23821311  0.64005565  0.75124598     0.09300
C891        C  0.32313734  0.59851167  0.75242936    -0.54300
C892        C  0.29758727  0.59537011  0.78968618     0.09800
H893        H  0.26716783  0.52767418  0.68640616     0.14300
H894        H  0.22631713  0.59031847  0.81071084     0.00100
H895        H  0.25795947  0.67315985  0.69014564     0.14600
H896        H  0.35860651  0.60224940  0.75315322     0.14400
C897        C  0.14227331  0.72478699  0.71788340     0.86200
C898        C  0.17533309  0.51766294  0.71695540    -0.54000
C899        C  0.20462373  0.51513888  0.75037994     0.09100
C900        C  0.19720486  0.72028456  0.78318901     0.20100
C901        C  0.17018461  0.67656144  0.72111764    -0.54700
C902        C  0.19929320  0.67395317  0.75467067     0.09300
C903        C  0.12008328  0.72790589  0.76318083    -0.54300
C904        C  0.14840924  0.72566422  0.79724801     0.09800
H905        H  0.17639708  0.54700516  0.69118863     0.14300
H906        H  0.22031879  0.71798847  0.81059366     0.00100
H907        H  0.16990030  0.64870086  0.69624320     0.14600
H908        H  0.08526627  0.73408262  0.76909751     0.14400
O909        O  0.01732989  0.52470428  0.54748531    -0.72000
O910        O  0.93138352  0.52997786  0.95836986    -0.72300
O911        O  0.92979781  0.53198581  0.54587028    -0.72100
O912        O  0.01973052  0.52378855  0.95979650    -0.72100
O913        O  0.01888388  0.69256123  0.96518295    -0.72100
O914        O  0.92414842  0.70109369  0.54878803    -0.72100
O915        O  0.93025967  0.69870105  0.96072635    -0.72000
O916        O  0.01161400  0.69361683  0.55322230    -0.72200
V917        V  0.97451478  0.52598830  0.50279997     1.35200
V918        V  0.97129582  0.69798085  0.50672534     1.35200
C919        C  0.02784123  0.73317219  0.56638745     0.77200
C920        C  0.91586592  0.74009103  0.94460061     0.77300
C921        C  0.91228174  0.74328864  0.56293933     0.77100
C922        C  0.03550048  0.73219653  0.94825381     0.77100
O923        O  0.43292201  0.56981528  0.54100107    -0.72000
O924        O  0.51499324  0.57260094  0.94596630    -0.72300
O925        O  0.52052852  0.57187254  0.53411768    -0.72100
O926        O  0.42685676  0.57138340  0.95304224    -0.72100
O927        O  0.42535449  0.65265834  0.95004335    -0.72100
O928        O  0.51735929  0.65316464  0.53187414    -0.72100
O929        O  0.51350570  0.65388761  0.94404902    -0.72000
O930        O  0.42961362  0.65105570  0.53809252    -0.72200
V931        V  0.47381905  0.57298302  0.49340327     1.35200
V932        V  0.47147428  0.65110287  0.49105171     1.35200
C933        C  0.41737321  0.60990761  0.55601979     0.77200
C934        C  0.52817383  0.61351676  0.92857010     0.77300
C935        C  0.53414634  0.61278985  0.54762392     0.77100
C936        C  0.41050890  0.61213076  0.93719551     0.77100
C937        C  0.07130417  0.73151082  0.91440233    -0.00400
C938        C  0.07641371  0.52477643  0.88695648    -0.12300
C939        C  0.10577977  0.52534847  0.85135221     0.01800
C940        C  0.13085904  0.73193061  0.84223306    -0.00500
C941        C  0.12909864  0.69019139  0.87169576    -0.12200
C942        C  0.09951327  0.68958313  0.90769630     0.01700
H943        H  0.05569282  0.55767156  0.89179175     0.14700
H944        H  0.14868122  0.65692779  0.86498942     0.14700
C945        C  0.09861345  0.64555239  0.93680639     0.36300
C946        C  0.10698192  0.56957664  0.82232716     0.36200
N947        N  0.09814270  0.61039743  0.96034897    -0.44000
N948        N  0.10769111  0.60456886  0.79861949    -0.44000
C949        C  0.11243783  0.72630728  0.67783879    -0.00400
C950        C  0.06669655  0.72004023  0.68294688    -0.12300
C951        C  0.03904474  0.72202957  0.64698190     0.01800
C952        C  0.05654669  0.73082970  0.60450203    -0.00500
C953        C  0.10198669  0.73483221  0.59842436    -0.12200
C954        C  0.13006970  0.48127804  0.63435146     0.01700
H955        H  0.05171281  0.71159124  0.71458840     0.14700
H956        H  0.11561889  0.48960256  0.56543110     0.14700
C957        C  0.17686010  0.48125078  0.62533543     0.36300
C958        C  0.99272507  0.71419837  0.65485198     0.36200
N959        N  0.21433585  0.48100851  0.61812224    -0.44000
N960        N  0.95588629  0.70737834  0.66230103    -0.44000
C961        C  0.31786803  0.60320822  0.83272751    -0.00400
C962        C  0.34238196  0.64667393  0.83648093    -0.12300
C963        C  0.37090937  0.65168859  0.87132889     0.01800
C964        C  0.37588062  0.61218200  0.90340586    -0.00500
C965        C  0.34891860  0.57031444  0.90133845    -0.12200
C966        C  0.31987937  0.56572517  0.86660582     0.01700
H967        H  0.34074141  0.67599801  0.81075156     0.14700
H968        H  0.35146731  0.54026082  0.92629085     0.14700
C969        C  0.29443466  0.52103347  0.86590087     0.36300
C970        C  0.39647091  0.69653357  0.87133840     0.36200
N971        N  0.27449064  0.48465858  0.86723740    -0.44000
N972        N  0.41655823  0.73280488  0.87101089    -0.44000
C973        C  0.32851661  0.60254499  0.66890377    -0.00400
C974        C  0.32939257  0.64551267  0.64011045    -0.12300
C975        C  0.35737464  0.64851489  0.60328139     0.01800
C976        C  0.38631213  0.60825481  0.59418404    -0.00500
C977        C  0.38625876  0.56555631  0.62276494    -0.12200
C978        C  0.35823294  0.56245921  0.65974904     0.01700
H979        H  0.30930695  0.67827262  0.64583285     0.14700
H980        H  0.40880882  0.53453941  0.61662886     0.14700
C981        C  0.36132532  0.51773987  0.68806050     0.36300
C982        C  0.35481973  0.69332941  0.57503238     0.36200
N983        N  0.36381777  0.48194097  0.71073128    -0.44000
N984        N  0.35262621  0.72919174  0.55241966    -0.44000
C985        C  0.82092544  0.74294309  0.84040346    -0.00400
C986        C  0.82156691  0.53200735  0.87015816    -0.12300
C987        C  0.85161412  0.53165421  0.90437914     0.01800
C988        C  0.88189329  0.74131755  0.91026775    -0.00500
C989        C  0.87960477  0.70077428  0.88281426    -0.12200
C990        C  0.84988519  0.70117167  0.84831958     0.01700
H991        H  0.79984785  0.56417348  0.86704320     0.14700
H992        H  0.90222043  0.66911129  0.88737761     0.14700
C993        C  0.85159712  0.65896538  0.82025050     0.36300
C994        C  0.84995291  0.57302836  0.93335914     0.36200
N995        N  0.85326769  0.62532525  0.79762484    -0.44000
N996        N  0.84839564  0.60615997  0.95654563    -0.44000
C997        C  0.88067038  0.74759419  0.60025520    -0.00400
C998        C  0.85118700  0.70876544  0.61005891    -0.12300
C999        C  0.82437498  0.70906051  0.64791165     0.01800
C1000       C  0.82686716  0.74875386  0.67664167    -0.00500
C1001       C  0.85545226  0.78804705  0.66649161    -0.12200
C1002       C  0.88220894  0.78795493  0.62883395     0.01700
H1003       H  0.84998507  0.67737703  0.58880468     0.14700
H1004       H  0.85778069  0.81828283  0.68887671     0.14700
C1005       C  0.91351530  0.82763941  0.62269229     0.36300
C1006       C  0.79708740  0.66647298  0.65801595     0.36200
N1007       N  0.93898986  0.85900409  0.61776240    -0.44000
N1008       N  0.77573439  0.63179371  0.66576850    -0.44000
C1009       C  0.61624760  0.62071070  0.81631303    -0.00400
C1010       C  0.58916095  0.57939649  0.82357978    -0.12300
C1011       C  0.56127858  0.57552640  0.86041173     0.01800
C1012       C  0.55951709  0.61422755  0.89065559    -0.00500
C1013       C  0.58740247  0.65527414  0.88362685    -0.12200
C1014       C  0.61587121  0.65859847  0.84696454     0.01700
H1015       H  0.58933669  0.55031801  0.79985273     0.14700
H1016       H  0.58670700  0.68508209  0.90662232     0.14700
C1017       C  0.64276870  0.70225169  0.84043423     0.36300
C1018       C  0.53364563  0.53235048  0.86486626     0.36200
N1019       N  0.66428611  0.73728658  0.83529502    -0.44000
N1020       N  0.51189811  0.49736602  0.86799336    -0.44000
C1021       C  0.56785865  0.61434858  0.58198683    -0.00400
C1022       C  0.59408449  0.65670689  0.58304390    -0.12300
C1023       C  0.62316498  0.66346514  0.61728845     0.01800
C1024       C  0.62612883  0.62695132  0.65275640    -0.00500
C1025       C  0.60083769  0.58336009  0.64998316    -0.12200
C1026       C  0.57211231  0.57682505  0.61555762     0.01700
H1027       H  0.59139835  0.68541769  0.55687295     0.14700
H1028       H  0.60250290  0.55443996  0.67604223     0.14700
C1029       C  0.54536876  0.53272664  0.61728846     0.36300
C1030       C  0.64826850  0.70851967  0.61307756     0.36200
N1031       N  0.52379342  0.49752354  0.61875642    -0.44000
N1032       N  0.66764710  0.74517027  0.60766252    -0.44000
C1033       C  0.65237470  0.88023793  0.19542621     0.86200
C1034       C  0.68153733  0.92539458  0.20381109    -0.54000
C1035       C  0.70347897  0.92207986  0.24285909     0.09100
C1036       C  0.69188413  0.87541594  0.27102599     0.20100
C1037       C  0.68418780  0.83514336  0.20201319    -0.54700
C1038       C  0.70558415  0.83276967  0.24121440     0.09300
C1039       C  0.62122978  0.87750205  0.23535616    -0.54300
C1040       C  0.64155202  0.87501672  0.27453981     0.09800
H1041       H  0.68631317  0.95597762  0.18094821     0.14300
H1042       H  0.70620872  0.87353163  0.30383841     0.00100
H1043       H  0.68986255  0.80909958  0.17631507     0.14600
H1044       H  0.58565802  0.87727901  0.23284432     0.14400
C1045       C  0.79364052  0.99729519  0.29826456     0.86200
C1046       C  0.76379408  0.79431996  0.29064836    -0.54000
C1047       C  0.74144798  0.79568417  0.25202820     0.09100
C1048       C  0.75267960  0.00101154  0.22380595     0.20100
C1049       C  0.76181511  0.95378766  0.29283414    -0.54700
C1050       C  0.73953298  0.95622370  0.25390250     0.09300
C1051       C  0.82400070  0.99739692  0.25776112    -0.54300
C1052       C  0.80279169  0.99849705  0.21915117     0.09800
H1053       H  0.75890650  0.82262899  0.31414540     0.14300
H1054       H  0.73813848  0.00302490  0.19118357     0.00100
H1055       H  0.75672003  0.92538019  0.31870130     0.14600
H1056       H  0.85964982  0.99633753  0.25946369     0.14400
C1057       C  0.29780955  0.84996353  0.20972214     0.86200
C1058       C  0.26904695  0.80337336  0.21287953    -0.54000
C1059       C  0.24267876  0.79929684  0.24964471     0.09100
C1060       C  0.24766626  0.84297434  0.28083038     0.20100
C1061       C  0.26426251  0.89351420  0.21454323    -0.54700
C1062       C  0.23818129  0.89006404  0.25124292     0.09300
C1063       C  0.32311163  0.84854221  0.25242159    -0.54300
C1064       C  0.29756466  0.84539315  0.28968033     0.09800
H1065       H  0.26715484  0.77768568  0.18640420     0.14300
H1066       H  0.22629669  0.84032470  0.31070913     0.00100
H1067       H  0.25792549  0.92317954  0.19014588     0.14600
H1068       H  0.35857994  0.85228844  0.25314320     0.14400
C1069       C  0.14225693  0.97480734  0.21787754     0.86200
C1070       C  0.17532297  0.76764409  0.21696484    -0.54000
C1071       C  0.20461812  0.76513125  0.25038518     0.09100
C1072       C  0.19718935  0.97030344  0.28318150     0.20100
C1073       C  0.17015139  0.92657005  0.22112463    -0.54700
C1074       C  0.19926228  0.92396141  0.25467553     0.09300
C1075       C  0.12006862  0.97795217  0.26317246    -0.54300
C1076       C  0.14839513  0.97570797  0.29723883     0.09800
H1077       H  0.17637565  0.79698674  0.19119789     0.14300
H1078       H  0.22030240  0.96800578  0.31058712     0.00100
H1079       H  0.16985896  0.89870316  0.19625607     0.14600
H1080       H  0.08525260  0.98414126  0.26908696     0.14400
O1081       O  0.01732049  0.77466630  0.04750806    -0.72000
O1082       O  0.93140287  0.77995184  0.45836509    -0.72300
O1083       O  0.92978820  0.78195365  0.04586638    -0.72100
O1084       O  0.01974905  0.77375583  0.45981938    -0.72100
O1085       O  0.01888029  0.94259181  0.46517719    -0.72100
O1086       O  0.92413843  0.95111926  0.04877192    -0.72100
O1087       O  0.93025986  0.94873136  0.46071337    -0.72000
O1088       O  0.01160054  0.94363956  0.05321606    -0.72200
V1089       V  0.97451937  0.77595536  0.00280929     1.35200
V1090       V  0.97128917  0.94800834  0.00671512     1.35200
C1091       C  0.02782916  0.98319289  0.06638250     0.77200
C1092       C  0.91586205  0.99012089  0.44459190     0.77300
C1093       C  0.91227503  0.99331263  0.06292813     0.77100
C1094       C  0.03549282  0.98222834  0.44824638     0.77100
O1095       O  0.43290749  0.81983615  0.04100677    -0.72000
O1096       O  0.51495867  0.82260482  0.44595085    -0.72300
O1097       O  0.52051364  0.82187718  0.03410395    -0.72100
O1098       O  0.42682269  0.82140086  0.45304841    -0.72100
O1099       O  0.42534769  0.90267574  0.45002648    -0.72100
O1100       O  0.51733133  0.90316795  0.03187968    -0.72100
O1101       O  0.51350019  0.90389091  0.44405253    -0.72000
O1102       O  0.42958574  0.90107625  0.03807752    -0.72200
V1103       V  0.47379441  0.82299434  0.99339902     1.35200
V1104       V  0.47145734  0.90111390  0.99104587     1.35200
C1105       C  0.41735261  0.85993114  0.05601597     0.77200
C1106       C  0.52815443  0.86351913  0.42856369     0.77300
C1107       C  0.53412560  0.86279225  0.04762035     0.77100
C1108       C  0.41048895  0.86214976  0.43718954     0.77100
C1109       C  0.07129377  0.98154482  0.41439318    -0.00400
C1110       C  0.07642087  0.77474289  0.38696622    -0.12300
C1111       C  0.10578689  0.77531508  0.35136140     0.01800
C1112       C  0.13084649  0.98197119  0.34222366    -0.00500
C1113       C  0.12908312  0.94022701  0.37168024    -0.12200
C1114       C  0.09949969  0.93961606  0.40768171     0.01700
H1115       H  0.05569335  0.80763375  0.39179654     0.14700
H1116       H  0.14866138  0.90696205  0.36496793     0.14700
C1117       C  0.09859815  0.89558092  0.43678640     0.36300
C1118       C  0.10698052  0.81953771  0.32232885     0.36200
N1119       N  0.09812614  0.86042262  0.46032500    -0.44000
N1120       N  0.10768428  0.85452421  0.29861414    -0.44000
C1121       C  0.11242061  0.97632427  0.17783460    -0.00400
C1122       C  0.06667845  0.97006302  0.18294379    -0.12300
C1123       C  0.03902774  0.97204604  0.14697768     0.01800
C1124       C  0.05653155  0.98084587  0.10449824    -0.00500
C1125       C  0.10197195  0.98483690  0.09842053    -0.12200
C1126       C  0.13007025  0.73122986  0.13436320     0.01700
H1127       H  0.05169489  0.96161884  0.21458656     0.14700
H1128       H  0.11561899  0.73953679  0.06544183     0.14700
C1129       C  0.17686075  0.73121620  0.12534722     0.36300
C1130       C  0.99270961  0.96419894  0.15484440     0.36200
N1131       N  0.21433650  0.73098866  0.11813470    -0.44000
N1132       N  0.95587252  0.95736214  0.16228883    -0.44000
C1133       C  0.31784792  0.85323082  0.33272082    -0.00400
C1134       C  0.34236830  0.89669258  0.33647034    -0.12300
C1135       C  0.37089746  0.90170598  0.37131692     0.01800
C1136       C  0.37586191  0.86220338  0.40339865    -0.00500
C1137       C  0.34889441  0.82034043  0.40133489    -0.12200
C1138       C  0.31985544  0.81575093  0.36660245     0.01700
H1139       H  0.34073168  0.92601435  0.31073854     0.14700
H1140       H  0.35143897  0.79028941  0.42629025     0.14700
C1141       C  0.29440918  0.77106029  0.36590281     0.36300
C1142       C  0.39646884  0.94654399  0.37131911     0.36200
N1143       N  0.27446699  0.73468400  0.36724908    -0.44000
N1144       N  0.41656504  0.98280904  0.37098486    -0.44000
C1145       C  0.32848874  0.85257116  0.16889617    -0.00400
C1146       C  0.32934831  0.89552842  0.14008906    -0.12300
C1147       C  0.35733785  0.89853348  0.10326441     0.01800
C1148       C  0.38629230  0.85828368  0.09418154    -0.00500
C1149       C  0.38625268  0.81559615  0.12277485    -0.12200
C1150       C  0.35822239  0.81249731  0.15975513     0.01700
H1151       H  0.30924245  0.92827665  0.14579550     0.14700
H1152       H  0.40881568  0.78458788  0.11665007     0.14700
C1153       C  0.36132570  0.76778619  0.18807548     0.36300
C1154       C  0.35477389  0.94333891  0.07500469     0.36200
N1155       N  0.36382624  0.73199352  0.21075310    -0.44000
N1156       N  0.35257491  0.97919408  0.05238338    -0.44000
C1157       C  0.82092548  0.99294281  0.34039610    -0.00400
C1158       C  0.82160092  0.78203339  0.37013517    -0.12300
C1159       C  0.85164958  0.78167016  0.40435592     0.01800
C1160       C  0.88189267  0.99134072  0.41025814    -0.00500
C1161       C  0.87962461  0.95080275  0.38279670    -0.12200
C1162       C  0.84990217  0.95118615  0.34830615     0.01700
H1163       H  0.79990971  0.81422254  0.36700057     0.14700
H1164       H  0.90225612  0.91915339  0.38735298     0.14700
C1165       C  0.85162684  0.90898026  0.32023708     0.36300
C1166       C  0.85001999  0.82306309  0.43331582     0.36200
N1167       N  0.85330860  0.87533895  0.29761303    -0.44000
N1168       N  0.84848943  0.85620895  0.45648744    -0.44000
C1169       C  0.88066558  0.99761352  0.10024341    -0.00400
C1170       C  0.85118146  0.95878434  0.11004023    -0.12300
C1171       C  0.82437378  0.95906986  0.14789513     0.01800
C1172       C  0.82687323  0.99875353  0.17663405    -0.00500
C1173       C  0.85545725  0.03804873  0.16648991    -0.12200
C1174       C  0.88220812  0.03796714  0.12882902     0.01700
H1175       H  0.84997552  0.92740294  0.08877855     0.14700
H1176       H  0.85778747  0.06827890  0.18888057     0.14700
C1177       C  0.91350954  0.07765674  0.12268881     0.36300
C1178       C  0.79708195  0.91648334  0.15798989     0.36200
N1179       N  0.93897886  0.10902713  0.11776006    -0.44000
N1180       N  0.77572526  0.88180477  0.16573287    -0.44000
C1181       C  0.61622619  0.87073277  0.31629996    -0.00400
C1182       C  0.58912744  0.82942631  0.32355407    -0.12300
C1183       C  0.56125111  0.82554399  0.36039075     0.01800
C1184       C  0.55949956  0.86423099  0.39064860    -0.00500
C1185       C  0.58739796  0.90526842  0.38363347    -0.12200
C1186       C  0.61586754  0.90859950  0.34697137     0.01700
H1187       H  0.58929420  0.80035907  0.29981682     0.14700
H1188       H  0.58671444  0.93506314  0.40664188     0.14700
C1189       C  0.64278963  0.95223599  0.34046768     0.36300
C1190       C  0.53362227  0.78236451  0.36484051     0.36200
N1191       N  0.66432765  0.98725728  0.33535430    -0.44000
N1192       N  0.51188254  0.74737351  0.36796182    -0.44000
C1193       C  0.56784368  0.86435183  0.08197973    -0.00400
C1194       C  0.59400787  0.90675542  0.08307891    -0.12300
C1195       C  0.62308662  0.91351784  0.11732231     0.01800
C1196       C  0.62612506  0.87695223  0.15274372    -0.00500
C1197       C  0.60088725  0.83332451  0.14993465    -0.12200
C1198       C  0.57216019  0.82678775  0.11550914     0.01700
H1199       H  0.59126882  0.93550426  0.05694513     0.14700
H1200       H  0.60259242  0.80437665  0.17596750     0.14700
C1201       C  0.54547582  0.78264307  0.11720291     0.36300
C1202       C  0.64808694  0.95865043  0.11316974     0.36200
N1203       N  0.52394578  0.74740377  0.11864300    -0.44000
N1204       N  0.66738465  0.99536229  0.10779302    -0.44000
C1205       C  0.65237468  0.88023800  0.69542620     0.86200
C1206       C  0.68153734  0.92539465  0.70381108    -0.54000
C1207       C  0.70347898  0.92207991  0.74285908     0.09100
C1208       C  0.69188414  0.87541599  0.77102599     0.20100
C1209       C  0.68418782  0.83514344  0.70201320    -0.54700
C1210       C  0.70558420  0.83276975  0.74121440     0.09300
C1211       C  0.62122979  0.87750213  0.73535616    -0.54300
C1212       C  0.64155200  0.87501674  0.77453980     0.09800
H1213       H  0.68631316  0.95597767  0.68094818     0.14300
H1214       H  0.70620874  0.87353170  0.80383840     0.00100
H1215       H  0.68986255  0.80909965  0.67631507     0.14600
H1216       H  0.58565794  0.87727914  0.73284433     0.14400
C1217       C  0.79364055  0.99729524  0.79826455     0.86200
C1218       C  0.76379405  0.79431985  0.79064842    -0.54000
C1219       C  0.74144798  0.79568415  0.75202824     0.09100
C1220       C  0.75267957  0.00101159  0.72380595     0.20100
C1221       C  0.76181515  0.95378769  0.79283412    -0.54700
C1222       C  0.73953300  0.95622374  0.75390252     0.09300
C1223       C  0.82400071  0.99739701  0.75776106    -0.54300
C1224       C  0.80279162  0.99849715  0.71915113     0.09800
H1225       H  0.75890639  0.82262881  0.81414549     0.14300
H1226       H  0.73813846  0.00302495  0.69118367     0.00100
H1227       H  0.75672018  0.92538013  0.81870125     0.14600
H1228       H  0.85964974  0.99633766  0.75946360     0.14400
C1229       C  0.29780954  0.84996349  0.70972215     0.86200
C1230       C  0.26904700  0.80337330  0.71287958    -0.54000
C1231       C  0.24267882  0.79929676  0.74964478     0.09100
C1232       C  0.24766631  0.84297428  0.78083040     0.20100
C1233       C  0.26426245  0.89351413  0.71454326    -0.54700
C1234       C  0.23818124  0.89006397  0.75124297     0.09300
C1235       C  0.32311166  0.84854216  0.75242158    -0.54300
C1236       C  0.29756470  0.84539315  0.78968033     0.09800
H1237       H  0.26715492  0.77768561  0.68640428     0.14300
H1238       H  0.22629677  0.84032458  0.81070923     0.00100
H1239       H  0.25792536  0.92317947  0.69014586     0.14600
H1240       H  0.35857996  0.85228834  0.75314317     0.14400
C1241       C  0.14225691  0.97480728  0.71787756     0.86200
C1242       C  0.17532306  0.76764401  0.71696483    -0.54000
C1243       C  0.20461819  0.76513113  0.75038518     0.09100
C1244       C  0.19718932  0.97030334  0.78318156     0.20100
C1245       C  0.17015131  0.92657000  0.72112469    -0.54700
C1246       C  0.19926218  0.92396128  0.75467559     0.09300
C1247       C  0.12006857  0.97795213  0.76317249    -0.54300
C1248       C  0.14839508  0.97570790  0.79723885     0.09800
H1249       H  0.17637576  0.79698668  0.69119789     0.14300
H1250       H  0.22030234  0.96800559  0.81058715     0.00100
H1251       H  0.16985885  0.89870312  0.69625603     0.14600
H1252       H  0.08525260  0.98414112  0.76908699     0.14400
O1253       O  0.01732038  0.77466632  0.54750809    -0.72000
O1254       O  0.93140294  0.77995190  0.95836511    -0.72300
O1255       O  0.92978817  0.78195362  0.54586638    -0.72100
O1256       O  0.01974911  0.77375577  0.95981942    -0.72100
O1257       O  0.01888022  0.94259181  0.96517718    -0.72100
O1258       O  0.92413850  0.95111921  0.54877196    -0.72100
O1259       O  0.93025991  0.94873139  0.96071326    -0.72000
O1260       O  0.01160063  0.94363950  0.55321605    -0.72200
V1261       V  0.97451930  0.77595536  0.50280928     1.35200
V1262       V  0.97128921  0.94800831  0.50671515     1.35200
C1263       C  0.02782922  0.98319282  0.56638251     0.77200
C1264       C  0.91586208  0.99012089  0.94459181     0.77300
C1265       C  0.91227506  0.99331254  0.56292815     0.77100
C1266       C  0.03549279  0.98222835  0.94824640     0.77100
O1267       O  0.43290754  0.81983617  0.54100676    -0.72000
O1268       O  0.51495873  0.82260473  0.94595091    -0.72300
O1269       O  0.52051363  0.82187712  0.53410390    -0.72100
O1270       O  0.42682267  0.82140082  0.95304841    -0.72100
O1271       O  0.42534764  0.90267568  0.95002655    -0.72100
O1272       O  0.51733125  0.90316789  0.53187978    -0.72100
O1273       O  0.51350012  0.90389083  0.94405247    -0.72000
O1274       O  0.42958575  0.90107625  0.53807750    -0.72200
V1275       V  0.47379441  0.82299437  0.49339899     1.35200
V1276       V  0.47145735  0.90111393  0.49104588     1.35200
C1277       C  0.41735267  0.85993115  0.55601598     0.77200
C1278       C  0.52815444  0.86351906  0.92856370     0.77300
C1279       C  0.53412555  0.86279218  0.54762038     0.77100
C1280       C  0.41048892  0.86214975  0.93718957     0.77100
C1281       C  0.07129371  0.98154476  0.91439319    -0.00400
C1282       C  0.07642087  0.77474277  0.88696619    -0.12300
C1283       C  0.10578686  0.77531501  0.85136139     0.01800
C1284       C  0.13084639  0.98197106  0.84222366    -0.00500
C1285       C  0.12908300  0.94022687  0.87168021    -0.12200
C1286       C  0.09949963  0.93961603  0.90768172     0.01700
H1287       H  0.05569328  0.80763381  0.89179655     0.14700
H1288       H  0.14866123  0.90696192  0.86496792     0.14700
C1289       C  0.09859820  0.89558100  0.93678648     0.36300
C1290       C  0.10698059  0.81953761  0.82232886     0.36200
N1291       N  0.09812624  0.86042275  0.96032510    -0.44000
N1292       N  0.10768439  0.85452409  0.79861414    -0.44000
C1293       C  0.11242063  0.97632422  0.67783461    -0.00400
C1294       C  0.06667849  0.97006289  0.68294381    -0.12300
C1295       C  0.03902775  0.97204591  0.64697771     0.01800
C1296       C  0.05653158  0.98084580  0.60449828    -0.00500
C1297       C  0.10197199  0.98483678  0.59842054    -0.12200
C1298       C  0.13007023  0.73122996  0.63436320     0.01700
H1299       H  0.05169494  0.96161872  0.71458656     0.14700
H1300       H  0.11561901  0.73953655  0.56544181     0.14700
C1301       C  0.17686066  0.73121616  0.62534724     0.36300
C1302       C  0.99270965  0.96419882  0.65484441     0.36200
N1303       N  0.21433647  0.73098850  0.61813468    -0.44000
N1304       N  0.95587250  0.95736200  0.66228886    -0.44000
C1305       C  0.31784795  0.85323088  0.83272083    -0.00400
C1306       C  0.34236824  0.89669277  0.83647039    -0.12300
C1307       C  0.37089739  0.90170615  0.87131702     0.01800
C1308       C  0.37586189  0.86220347  0.90339867    -0.00500
C1309       C  0.34889434  0.82034056  0.90133494    -0.12200
C1310       C  0.31985544  0.81575102  0.86660246     0.01700
H1311       H  0.34073159  0.92601449  0.81073867     0.14700
H1312       H  0.35143884  0.79028960  0.92629033     0.14700
C1313       C  0.29440928  0.77106038  0.86590281     0.36300
C1314       C  0.39646879  0.94654417  0.87131924     0.36200
N1315       N  0.27446703  0.73468407  0.86724908    -0.44000
N1316       N  0.41656508  0.98280918  0.87098493    -0.44000
C1317       C  0.32848872  0.85257103  0.66889613    -0.00400
C1318       C  0.32934832  0.89552836  0.64008908    -0.12300
C1319       C  0.35733792  0.89853341  0.60326443     0.01800
C1320       C  0.38629237  0.85828366  0.59418157    -0.00500
C1321       C  0.38625280  0.81559612  0.62277487    -0.12200
C1322       C  0.35822239  0.81249720  0.65975509     0.01700
H1323       H  0.30924255  0.92827651  0.64579559     0.14700
H1324       H  0.40881589  0.78458796  0.61665016     0.14700
C1325       C  0.36132576  0.76778610  0.68807543     0.36300
C1326       C  0.35477388  0.94333882  0.57500470     0.36200
N1327       N  0.36382635  0.73199344  0.71075308    -0.44000
N1328       N  0.35257472  0.97919396  0.55238338    -0.44000
C1329       C  0.82092552  0.99294283  0.84039606    -0.00400
C1330       C  0.82160097  0.78203345  0.87013507    -0.12300
C1331       C  0.85164972  0.78167031  0.90435580     0.01800
C1332       C  0.88189265  0.99134077  0.91025811    -0.00500
C1333       C  0.87962455  0.95080269  0.88279672    -0.12200
C1334       C  0.84990218  0.95118616  0.84830610     0.01700
H1335       H  0.79990982  0.81422245  0.86700049     0.14700
H1336       H  0.90225593  0.91915331  0.88735307     0.14700
C1337       C  0.85162679  0.90898022  0.82023703     0.36300
C1338       C  0.85002007  0.82306320  0.93331570     0.36200
N1339       N  0.85330842  0.87533883  0.79761305    -0.44000
N1340       N  0.84848952  0.85620895  0.95648751    -0.44000
C1341       C  0.88066561  0.99761346  0.60024345    -0.00400
C1342       C  0.85118149  0.95878424  0.61004028    -0.12300
C1343       C  0.82437369  0.95906988  0.64789511     0.01800
C1344       C  0.82687309  0.99875363  0.67663397    -0.00500
C1345       C  0.85545713  0.03804877  0.66648983    -0.12200
C1346       C  0.88220809  0.03796707  0.62882903     0.01700
H1347       H  0.84997561  0.92740285  0.58877865     0.14700
H1348       H  0.85778729  0.06827903  0.68888048     0.14700
C1349       C  0.91350945  0.07765677  0.62268881     0.36300
C1350       C  0.79708178  0.91648338  0.65798985     0.36200
N1351       N  0.93897858  0.10902728  0.61776007    -0.44000
N1352       N  0.77572510  0.88180484  0.66573285    -0.44000
C1353       C  0.61622621  0.87073272  0.81629997    -0.00400
C1354       C  0.58912750  0.82942623  0.82355411    -0.12300
C1355       C  0.56125115  0.82554394  0.86039079     0.01800
C1356       C  0.55949961  0.86423093  0.89064862    -0.00500
C1357       C  0.58739801  0.90526837  0.88363352    -0.12200
C1358       C  0.61586760  0.90859943  0.84697138     0.01700
H1359       H  0.58929424  0.80035895  0.79981691     0.14700
H1360       H  0.58671452  0.93506303  0.90664187     0.14700
C1361       C  0.64278959  0.95223592  0.84046768     0.36300
C1362       C  0.53362226  0.78236458  0.86484045     0.36200
N1363       N  0.66432755  0.98725736  0.83535429    -0.44000
N1364       N  0.51188246  0.74737354  0.86796156    -0.44000
C1365       C  0.56784363  0.86435175  0.58197971    -0.00400
C1366       C  0.59400786  0.90675534  0.58307884    -0.12300
C1367       C  0.62308666  0.91351777  0.61732221     0.01800
C1368       C  0.62612506  0.87695223  0.65274370    -0.00500
C1369       C  0.60088720  0.83332453  0.64993465    -0.12200
C1370       C  0.57216015  0.82678770  0.61550917     0.01700
H1371       H  0.59126881  0.93550417  0.55694506     0.14700
H1372       H  0.60259232  0.80437667  0.67596759     0.14700
C1373       C  0.54547582  0.78264295  0.61720291     0.36300
C1374       C  0.64808704  0.95865035  0.61316960     0.36200
N1375       N  0.52394587  0.74740359  0.61864301    -0.44000
N1376       N  0.66738478  0.99536219  0.60779296    -0.44000
loop_ 
_geom_bond_atom_site_label_1 
_geom_bond_atom_site_label_2 
_geom_bond_distance 
_geom_bond_site_symmetry_2 
_ccdc_geom_bond_type 
C1            C2   1.546       .  S
C1            C7   1.530       .  S
C1            C5   1.538       .  S
C1          C164   1.548       .  S
C2            H9   1.062       .  S
C2            C3   1.376       .  D
C3            C4   1.527       .  S
C3           C18   1.495       .  S
C4            C8   1.534       .  S
C4            C6   1.536       .  S
C4           H10   1.099       .  S
C5           H11   1.081       .  S
C5            C6   1.372       .  D
C6           C15   1.490       .  S
C7           H12   1.087       .  S
C7            C8   1.356       .  D
C8          C149   1.479       .  S
C13          C19   1.529       .  S
C13          C17   1.546       .  S
C13         C358   1.546       .  S
C13         C125   1.543       .  S
C14        C1045   1.546   1_545  S
C14          H21   1.072       .  S
C14          C15   1.371       .  D
C15        C1048   1.531       .  S
C16          C20   1.529       .  S
C16          C18   1.531       .  S
C16         C359   1.532       .  S
C16          H22   1.096       .  S
C17          H23   1.082       .  S
C17          C18   1.378       .  D
C19          H24   1.087       .  S
C19          C20   1.354       .  D
C20         C140   1.478       .  S
C25          C26   1.536       .  S
C25          C31   1.526       .  S
C25          C29   1.542       .  S
C25         C113   1.543       .  S
C26          H33   1.087       .  S
C26          C27   1.369       .  D
C27          C28   1.550       .  S
C27          C39   1.489       .  S
C28          C32   1.551       .  S
C28          C30   1.541       .  S
C28          H34   1.111       .  S
C29          H35   1.080       .  S
C29          C30   1.362       .  D
C30          C42   1.480       .  S
C31          H36   1.087       .  S
C31          C32   1.366       .  D
C32         C101   1.488       .  S
C37          C43   1.532       .  S
C37          C41   1.529       .  S
C37         C382   1.539       .  S
C37          C89   1.536       .  S
C38        C1069   1.539   1_545  S
C38          H45   1.086       .  S
C38          C39   1.366       .  D
C39        C1072   1.545   1_545  S
C40          C44   1.543       .  S
C40          C42   1.544       .  S
C40         C383   1.545       .  S
C40          H46   1.102       .  S
C41          H47   1.087       .  S
C41          C42   1.366       .  D
C43          H48   1.082       .  S
C43          C44   1.362       .  D
C44          C80   1.479       .  S
O49          V57   1.904   1_455  S
O49        C1091   1.265   1_545  A
O50         V229   1.904       .  S
O50        C1092   1.266   1_545  A
O51          V57   1.884       .  S
O51        C1093   1.260   1_545  A
O52         V229   1.886   1_455  S
O52        C1094   1.262   1_545  A
O53         V230   1.914   1_455  S
O53          C62   1.268       .  A
O54          V58   1.910       .  S
O54          C61   1.268       .  A
O55         V230   1.897       .  S
O55          C60   1.264       .  A
O56          V58   1.892   1_455  S
O56          C59   1.261       .  A
V57         O222   1.904   1_554  S
V57         O224   1.886   1_654  S
V57        V1090   2.086   1_545  T
V58         O225   1.914   1_654  S
V58         O227   1.897   1_554  S
V58         V401   2.086       .  T
C59         O393   1.265       .  A
C59          C92   1.467       .  S
C60         O394   1.266       .  A
C60         C128   1.485       .  S
C61         O395   1.260       .  A
C61         C137   1.484       .  S
C62         O396   1.262       .  A
C62          C77   1.488       .  S
O63          V71   1.896   1_554  S
O63          C73   1.263       .  A
O64         V243   1.897       .  S
O64          C74   1.264       .  A
O65          V71   1.905   1_554  S
O65          C75   1.266       .  A
O66         V243   1.908       .  S
O66          C76   1.267       .  A
O67         V244   1.898       .  S
O67          C76   1.263       .  A
O68          V72   1.893   1_554  S
O68          C75   1.263       .  A
O69         V244   1.904       .  S
O69          C74   1.266       .  A
O70          V72   1.902   1_554  S
O70          C73   1.266       .  A
V71         O236   1.897       .  S
V71         O238   1.908       .  S
V71          V72   2.085       .  T
V72         O239   1.898       .  S
V72         O241   1.904       .  S
C73         C116   1.486       .  S
C74         C152   1.486       .  S
C75         C161   1.484       .  S
C76         C104   1.489       .  S
C77          C82   1.416       .  A
C77         C422   1.406       .  A
C78          C79   1.394       .  A
C78        C1109   1.406   1_545  A
C78          H83   1.084       .  S
C79        C1112   1.409   1_545  A
C79          C86   1.446       .  S
C80          C81   1.403       .  A
C80         C423   1.409       .  A
C81          C82   1.407       .  A
C81          H84   1.084       .  S
C82          C85   1.443       .  S
C85          N87   1.157       .  T
C86          N88   1.157       .  T
C89          C90   1.411       .  A
C89         C438   1.424       .  A
C90          C91   1.395       .  A
C90          H95   1.077       .  S
C91          C92   1.405       .  A
C91          C98   1.444   1_455  S
C92          C93   1.398       .  A
C93         C438   1.403       .  A
C93         H440   1.085       .  S
C94        C1121   1.424       .  A
C94        C1125   1.403       .  A
C94          C97   1.445       .  S
H96        C1125   1.085       .  S
C97          N99   1.157       .  T
C98         N100   1.156       .  T
C101        C102   1.404       .  A
C101        C106   1.409       .  A
C102        C103   1.399       .  A
C102        H107   1.086       .  S
C103        C104   1.415       .  A
C103        C110   1.443       .  S
C104        C105   1.406       .  A
C105        C106   1.405       .  A
C105        H108   1.085       .  S
C106        C109   1.438       .  S
C109        N111   1.156   1_545  T
C110        N112   1.157       .  T
C113        C114   1.415       .  A
C113        C118   1.421       .  A
C114        C115   1.398       .  A
C114        H119   1.076       .  S
C115        C116   1.409       .  A
C115        C122   1.446       .  S
C116        C117   1.405       .  A
C117        C118   1.403       .  A
C117        H120   1.085       .  S
C118        C121   1.446       .  S
C121        N123   1.158   1_545  T
C122        N124   1.157       .  T
C125        C130   1.422       .  A
C125        C470   1.415       .  A
C126        C127   1.401       .  A
C126       C1157   1.415   1_545  A
C126        H131   1.075       .  S
C127       C1160   1.410   1_545  A
C127        C134   1.446       .  S
C128        C129   1.403       .  A
C128        C471   1.410       .  A
C129        C130   1.401       .  A
C129        H132   1.085       .  S
C130        C133   1.446       .  S
C133        N135   1.157       .  T
C134        N136   1.157       .  T
C137        C138   1.405       .  A
C137        C142   1.419       .  A
C138        C139   1.402       .  A
C138        H143   1.085       .  S
C139        C140   1.410       .  A
C139        C146   1.442       .  S
C140        C141   1.398       .  A
C141        C142   1.396       .  A
C141        H144   1.085       .  S
C142        C145   1.444       .  S
C145        N147   1.157       .  T
C146        N148   1.157       .  T
C149        C150   1.399       .  A
C149        C154   1.409       .  A
C150        C151   1.397       .  A
C150        H155   1.085       .  S
C151        C152   1.416       .  A
C151        C158   1.442       .  S
C152        C153   1.408       .  A
C153        C154   1.403       .  A
C153        H156   1.085       .  S
C154        C157   1.444       .  S
C157        N159   1.157       .  T
C158        N160   1.156   1_545  T
C161        C162   1.401       .  A
C161        C166   1.407       .  A
C162        C163   1.403       .  A
C162        H167   1.086       .  S
C163        C164   1.428       .  A
C163        C170   1.439       .  S
C164        C165   1.416       .  A
C165        C166   1.399       .  A
C165        H168   1.085       .  S
C166        C169   1.445       .  S
C169        N171   1.157   1_545  T
C170        N172   1.158       .  T
C173        C174   1.546       .  S
C173        C179   1.530       .  S
C173        C177   1.538       .  S
C173        C336   1.548       .  S
C174        H181   1.062       .  S
C174        C175   1.376       .  D
C175        C176   1.527       .  S
C175        C190   1.495       .  S
C176        C180   1.534       .  S
C176        C178   1.536       .  S
C176        H182   1.099       .  S
C177        H183   1.081       .  S
C177        C178   1.372       .  D
C178        C187   1.490       .  S
C179        H184   1.087       .  S
C179        C180   1.356       .  D
C180        C321   1.479       .  S
C185        C530   1.546       .  S
C185        C191   1.529       .  S
C185        C189   1.546       .  S
C185        C297   1.543       .  S
C186       C1217   1.546   1_545  S
C186        H193   1.072       .  S
C186        C187   1.371       .  D
C187       C1220   1.531       .  S
C188        C531   1.532       .  S
C188        C192   1.529       .  S
C188        C190   1.531       .  S
C188        H194   1.096       .  S
C189        H195   1.082       .  S
C189        C190   1.378       .  D
C191        H196   1.087       .  S
C191        C192   1.354       .  D
C192        C312   1.478       .  S
C197        C198   1.536       .  S
C197        C203   1.526       .  S
C197        C201   1.542       .  S
C197        C285   1.543       .  S
C198        H205   1.087       .  S
C198        C199   1.369       .  D
C199        C200   1.550       .  S
C199        C211   1.489       .  S
C200        C204   1.551       .  S
C200        C202   1.541       .  S
C200        H206   1.111       .  S
C201        H207   1.080       .  S
C201        C202   1.362       .  D
C202        C214   1.480       .  S
C203        H208   1.087       .  S
C203        C204   1.366       .  D
C204        C273   1.488       .  S
C209        C554   1.539       .  S
C209        C215   1.532       .  S
C209        C213   1.529       .  S
C209        C261   1.536       .  S
C210       C1241   1.539   1_545  S
C210        H217   1.086       .  S
C210        C211   1.366       .  D
C211       C1244   1.545   1_545  S
C212        C555   1.545       .  S
C212        C216   1.543       .  S
C212        C214   1.544       .  S
C212        H218   1.102       .  S
C213        H219   1.087       .  S
C213        C214   1.366       .  D
C215        H220   1.082       .  S
C215        C216   1.362       .  D
C216        C252   1.479       .  S
O221        V229   1.904   1_455  S
O221       C1263   1.265   1_545  A
O222       C1264   1.266   1_545  A
O223        V229   1.884       .  S
O223       C1265   1.260   1_545  A
O224       C1266   1.262   1_545  A
O225        C234   1.268       .  A
O226        V230   1.910       .  S
O226        C233   1.268       .  A
O227        C232   1.264       .  A
O228        V230   1.892   1_455  S
O228        C231   1.261       .  A
V229       V1262   2.086   1_545  T
V230        V573   2.086       .  T
C231        O565   1.265       .  A
C231        C264   1.467       .  S
C232        O566   1.266       .  A
C232        C300   1.485       .  S
C233        O567   1.260       .  A
C233        C309   1.484       .  S
C234        O568   1.262       .  A
C234        C249   1.488       .  S
O235        V243   1.896       .  S
O235        C245   1.263       .  A
O236        C246   1.264       .  A
O237        V243   1.905       .  S
O237        C247   1.266       .  A
O238        C248   1.267       .  A
O239        C248   1.263       .  A
O240        V244   1.893       .  S
O240        C247   1.263       .  A
O241        C246   1.266       .  A
O242        V244   1.902       .  S
O242        C245   1.266       .  A
V243        V244   2.085       .  T
C245        C288   1.486       .  S
C246        C324   1.486       .  S
C247        C333   1.484       .  S
C248        C276   1.489       .  S
C249        C594   1.406       .  A
C249        C254   1.416       .  A
C250       C1281   1.406   1_545  A
C250        C251   1.394       .  A
C250        H255   1.084       .  S
C251       C1284   1.409   1_545  A
C251        C258   1.446       .  S
C252        C595   1.409       .  A
C252        C253   1.403       .  A
C253        C254   1.407       .  A
C253        H256   1.084       .  S
C254        C257   1.443       .  S
C257        N259   1.157       .  T
C258        N260   1.157       .  T
C261        C262   1.411       .  A
C261        C610   1.424       .  A
C262        C263   1.395       .  A
C262        H267   1.077       .  S
C263        C264   1.405       .  A
C263        C270   1.444   1_455  S
C264        C265   1.398       .  A
C265        C610   1.403       .  A
C265        H612   1.085       .  S
C266       C1293   1.424       .  A
C266       C1297   1.403       .  A
C266        C269   1.445       .  S
H268       C1297   1.085       .  S
C269        N271   1.157       .  T
C270        N272   1.156       .  T
C273        C274   1.404       .  A
C273        C278   1.409       .  A
C274        C275   1.399       .  A
C274        H279   1.086       .  S
C275        C276   1.415       .  A
C275        C282   1.443       .  S
C276        C277   1.406       .  A
C277        C278   1.405       .  A
C277        H280   1.085       .  S
C278        C281   1.438       .  S
C281        N283   1.156   1_545  T
C282        N284   1.157       .  T
C285        C286   1.415       .  A
C285        C290   1.421       .  A
C286        C287   1.398       .  A
C286        H291   1.076       .  S
C287        C288   1.409       .  A
C287        C294   1.446       .  S
C288        C289   1.405       .  A
C289        C290   1.403       .  A
C289        H292   1.085       .  S
C290        C293   1.446       .  S
C293        N295   1.158   1_545  T
C294        N296   1.157       .  T
C297        C642   1.415       .  A
C297        C302   1.422       .  A
C298       C1329   1.415   1_545  A
C298        C299   1.401       .  A
C298        H303   1.075       .  S
C299       C1332   1.410   1_545  A
C299        C306   1.446       .  S
C300        C643   1.410       .  A
C300        C301   1.403       .  A
C301        C302   1.401       .  A
C301        H304   1.085       .  S
C302        C305   1.446       .  S
C305        N307   1.157       .  T
C306        N308   1.157       .  T
C309        C310   1.405       .  A
C309        C314   1.419       .  A
C310        C311   1.402       .  A
C310        H315   1.085       .  S
C311        C312   1.410       .  A
C311        C318   1.442       .  S
C312        C313   1.398       .  A
C313        C314   1.396       .  A
C313        H316   1.085       .  S
C314        C317   1.444       .  S
C317        N319   1.157       .  T
C318        N320   1.157       .  T
C321        C322   1.399       .  A
C321        C326   1.409       .  A
C322        C323   1.397       .  A
C322        H327   1.085       .  S
C323        C324   1.416       .  A
C323        C330   1.442       .  S
C324        C325   1.408       .  A
C325        C326   1.403       .  A
C325        H328   1.085       .  S
C326        C329   1.444       .  S
C329        N331   1.157       .  T
C330        N332   1.156   1_545  T
C333        C334   1.401       .  A
C333        C338   1.407       .  A
C334        C335   1.403       .  A
C334        H339   1.086       .  S
C335        C336   1.428       .  A
C335        C342   1.439       .  S
C336        C337   1.416       .  A
C337        C338   1.399       .  A
C337        H340   1.085       .  S
C338        C341   1.445       .  S
C341        N343   1.157   1_545  T
C342        N344   1.158       .  T
C345        C346   1.546       .  S
C345        C351   1.530       .  S
C345        C349   1.538       .  S
C345        C508   1.548       .  S
C346        H353   1.061       .  S
C346        C347   1.376       .  D
C347        C348   1.527       .  S
C347        C362   1.495       .  S
C348        C352   1.534       .  S
C348        C350   1.536       .  S
C348        H354   1.099       .  S
C349        H355   1.081       .  S
C349        C350   1.372       .  D
C350        C359   1.490       .  S
C351        H356   1.087       .  S
C351        C352   1.356       .  D
C352        C493   1.479       .  S
C357        C702   1.546       .  S
C357        C363   1.529       .  S
C357        C361   1.546       .  S
C357        C469   1.543       .  S
C358        H365   1.072       .  S
C358        C359   1.371       .  D
C360        C703   1.532       .  S
C360        C364   1.529       .  S
C360        C362   1.532       .  S
C360        H366   1.096       .  S
C361        H367   1.082       .  S
C361        C362   1.378       .  D
C363        H368   1.087       .  S
C363        C364   1.354       .  D
C364        C484   1.478       .  S
C369        C370   1.536       .  S
C369        C375   1.526       .  S
C369        C373   1.542       .  S
C369        C457   1.543       .  S
C370        H377   1.087       .  S
C370        C371   1.369       .  D
C371        C372   1.550       .  S
C371        C383   1.489       .  S
C372        C376   1.551       .  S
C372        C374   1.541       .  S
C372        H378   1.111       .  S
C373        H379   1.080       .  S
C373        C374   1.362       .  D
C374        C386   1.481       .  S
C375        H380   1.087       .  S
C375        C376   1.366       .  D
C376        C445   1.488       .  S
C381        C726   1.539       .  S
C381        C387   1.532       .  S
C381        C385   1.529       .  S
C381        C433   1.536       .  S
C382        H389   1.086       .  S
C382        C383   1.366       .  D
C384        C727   1.545       .  S
C384        C388   1.543       .  S
C384        C386   1.544       .  S
C384        H390   1.102       .  S
C385        H391   1.087       .  S
C385        C386   1.366       .  D
C387        H392   1.082       .  S
C387        C388   1.362       .  D
C388        C424   1.479       .  S
O393        V401   1.903   1_455  S
O394        V573   1.904       .  S
O395        V401   1.884       .  S
O396        V573   1.886   1_455  S
O397        V574   1.914   1_455  S
O397        C406   1.268       .  A
O398        V402   1.910       .  S
O398        C405   1.268       .  A
O399        V574   1.897       .  S
O399        C404   1.263       .  A
O400        V402   1.892   1_455  S
O400        C403   1.261       .  A
V401        O566   1.904   1_554  S
V401        O568   1.886   1_654  S
V402        O569   1.914   1_654  S
V402        O571   1.897   1_554  S
V402        V745   2.086       .  T
C403        O737   1.265       .  A
C403        C436   1.467       .  S
C404        O738   1.266       .  A
C404        C472   1.485       .  S
C405        O739   1.260       .  A
C405        C481   1.484       .  S
C406        O740   1.262       .  A
C406        C421   1.488       .  S
O407        V415   1.896   1_554  S
O407        C417   1.263       .  A
O408        V587   1.897       .  S
O408        C418   1.264       .  A
O409        V415   1.905   1_554  S
O409        C419   1.266       .  A
O410        V587   1.908       .  S
O410        C420   1.267       .  A
O411        V588   1.898       .  S
O411        C420   1.263       .  A
O412        V416   1.893   1_554  S
O412        C419   1.263       .  A
O413        V588   1.904       .  S
O413        C418   1.266       .  A
O414        V416   1.902   1_554  S
O414        C417   1.266       .  A
V415        O580   1.897       .  S
V415        O582   1.908       .  S
V415        V416   2.085       .  T
V416        O583   1.898       .  S
V416        O585   1.904       .  S
C417        C460   1.486       .  S
C418        C496   1.486       .  S
C419        C505   1.484       .  S
C420        C448   1.489       .  S
C421        C766   1.406       .  A
C421        C426   1.416       .  A
C422        C423   1.394       .  A
C422        H427   1.084       .  S
C423        C430   1.446       .  S
C424        C767   1.409       .  A
C424        C425   1.403       .  A
C425        C426   1.407       .  A
C425        H428   1.084       .  S
C426        C429   1.443       .  S
C429        N431   1.157       .  T
C430        N432   1.157       .  T
C433        C434   1.411       .  A
C433        C782   1.424       .  A
C434        C435   1.395       .  A
C434        H439   1.077       .  S
C435        C436   1.405       .  A
C435        C442   1.444   1_455  S
C436        C437   1.398       .  A
C437        C782   1.403       .  A
C437        H784   1.085       .  S
C438        C441   1.445       .  S
C441        N443   1.157       .  T
C442        N444   1.156       .  T
C445        C446   1.404       .  A
C445        C450   1.409       .  A
C446        C447   1.399       .  A
C446        H451   1.086       .  S
C447        C448   1.415       .  A
C447        C454   1.443       .  S
C448        C449   1.406       .  A
C449        C450   1.405       .  A
C449        H452   1.085       .  S
C450        C453   1.438       .  S
C453        N455   1.156       .  T
C454        N456   1.157       .  T
C457        C458   1.415       .  A
C457        C462   1.421       .  A
C458        C459   1.398       .  A
C458        H463   1.076       .  S
C459        C460   1.409       .  A
C459        C466   1.446       .  S
C460        C461   1.405       .  A
C461        C462   1.403       .  A
C461        H464   1.085       .  S
C462        C465   1.446       .  S
C465        N467   1.158       .  T
C466        N468   1.157       .  T
C469        C814   1.415       .  A
C469        C474   1.422       .  A
C470        C471   1.401       .  A
C470        H475   1.075       .  S
C471        C478   1.446       .  S
C472        C815   1.410       .  A
C472        C473   1.403       .  A
C473        C474   1.401       .  A
C473        H476   1.085       .  S
C474        C477   1.446       .  S
C477        N479   1.157       .  T
C478        N480   1.157       .  T
C481        C482   1.405       .  A
C481        C486   1.419       .  A
C482        C483   1.402       .  A
C482        H487   1.085       .  S
C483        C484   1.410       .  A
C483        C490   1.442       .  S
C484        C485   1.398       .  A
C485        C486   1.396       .  A
C485        H488   1.085       .  S
C486        C489   1.444       .  S
C489        N491   1.157       .  T
C490        N492   1.157       .  T
C493        C494   1.399       .  A
C493        C498   1.409       .  A
C494        C495   1.397       .  A
C494        H499   1.085       .  S
C495        C496   1.416       .  A
C495        C502   1.442       .  S
C496        C497   1.408       .  A
C497        C498   1.403       .  A
C497        H500   1.085       .  S
C498        C501   1.444       .  S
C501        N503   1.157       .  T
C502        N504   1.156       .  T
C505        C506   1.401       .  A
C505        C510   1.408       .  A
C506        C507   1.403       .  A
C506        H511   1.086       .  S
C507        C508   1.428       .  A
C507        C514   1.439       .  S
C508        C509   1.416       .  A
C509        C510   1.399       .  A
C509        H512   1.085       .  S
C510        C513   1.445       .  S
C513        N515   1.157       .  T
C514        N516   1.158       .  T
C517        C518   1.546       .  S
C517        C523   1.530       .  S
C517        C521   1.538       .  S
C517        C680   1.548       .  S
C518        H525   1.061       .  S
C518        C519   1.376       .  D
C519        C520   1.527       .  S
C519        C534   1.495       .  S
C520        C524   1.534       .  S
C520        C522   1.536       .  S
C520        H526   1.099       .  S
C521        H527   1.081       .  S
C521        C522   1.372       .  D
C522        C531   1.490       .  S
C523        H528   1.087       .  S
C523        C524   1.356       .  D
C524        C665   1.479       .  S
C529        C874   1.546       .  S
C529        C535   1.529       .  S
C529        C533   1.546       .  S
C529        C641   1.543       .  S
C530        H537   1.072       .  S
C530        C531   1.371       .  D
C532        C875   1.531       .  S
C532        C536   1.529       .  S
C532        C534   1.532       .  S
C532        H538   1.096       .  S
C533        H539   1.082       .  S
C533        C534   1.378       .  D
C535        H540   1.087       .  S
C535        C536   1.354       .  D
C536        C656   1.478       .  S
C541        C542   1.536       .  S
C541        C547   1.526       .  S
C541        C545   1.542       .  S
C541        C629   1.543       .  S
C542        H549   1.087       .  S
C542        C543   1.369       .  D
C543        C544   1.550       .  S
C543        C555   1.489       .  S
C544        C548   1.551       .  S
C544        C546   1.541       .  S
C544        H550   1.111       .  S
C545        H551   1.080       .  S
C545        C546   1.362       .  D
C546        C558   1.481       .  S
C547        H552   1.087       .  S
C547        C548   1.366       .  D
C548        C617   1.488       .  S
C553        C898   1.539       .  S
C553        C559   1.532       .  S
C553        C557   1.529       .  S
C553        C605   1.536       .  S
C554        H561   1.086       .  S
C554        C555   1.366       .  D
C556        C899   1.545       .  S
C556        C560   1.543       .  S
C556        C558   1.544       .  S
C556        H562   1.102       .  S
C557        H563   1.087       .  S
C557        C558   1.366       .  D
C559        H564   1.082       .  S
C559        C560   1.362       .  D
C560        C596   1.479       .  S
O565        V573   1.903   1_455  S
O567        V573   1.884       .  S
O569        C578   1.268       .  A
O570        V574   1.910       .  S
O570        C577   1.268       .  A
O571        C576   1.263       .  A
O572        V574   1.892   1_455  S
O572        C575   1.261       .  A
V574        V917   2.086       .  T
C575        O909   1.265       .  A
C575        C608   1.467       .  S
C576        O910   1.266       .  A
C576        C644   1.485       .  S
C577        O911   1.260       .  A
C577        C653   1.484       .  S
C578        O912   1.262       .  A
C578        C593   1.488       .  S
O579        V587   1.896       .  S
O579        C589   1.263       .  A
O580        C590   1.264       .  A
O581        V587   1.905       .  S
O581        C591   1.266       .  A
O582        C592   1.267       .  A
O583        C592   1.263       .  A
O584        V588   1.893       .  S
O584        C591   1.263       .  A
O585        C590   1.266       .  A
O586        V588   1.902       .  S
O586        C589   1.266       .  A
V587        V588   2.085       .  T
C589        C632   1.486       .  S
C590        C668   1.486       .  S
C591        C677   1.484       .  S
C592        C620   1.489       .  S
C593        C938   1.406       .  A
C593        C598   1.416       .  A
C594        C595   1.394       .  A
C594        H599   1.084       .  S
C595        C602   1.446       .  S
C596        C939   1.409       .  A
C596        C597   1.403       .  A
C597        C598   1.407       .  A
C597        H600   1.084       .  S
C598        C601   1.443       .  S
C601        N603   1.157       .  T
C602        N604   1.157       .  T
C605        C606   1.411       .  A
C605        C954   1.424       .  A
C606        C607   1.395       .  A
C606        H611   1.077       .  S
C607        C608   1.405       .  A
C607        C614   1.444   1_455  S
C608        C609   1.398       .  A
C609        C954   1.403       .  A
C609        H956   1.085       .  S
C610        C613   1.445       .  S
C613        N615   1.157       .  T
C614        N616   1.156       .  T
C617        C618   1.404       .  A
C617        C622   1.409       .  A
C618        C619   1.399       .  A
C618        H623   1.086       .  S
C619        C620   1.415       .  A
C619        C626   1.443       .  S
C620        C621   1.406       .  A
C621        C622   1.405       .  A
C621        H624   1.085       .  S
C622        C625   1.438       .  S
C625        N627   1.156       .  T
C626        N628   1.157       .  T
C629        C630   1.415       .  A
C629        C634   1.421       .  A
C630        C631   1.398       .  A
C630        H635   1.076       .  S
C631        C632   1.409       .  A
C631        C638   1.446       .  S
C632        C633   1.405       .  A
C633        C634   1.403       .  A
C633        H636   1.085       .  S
C634        C637   1.446       .  S
C637        N639   1.158       .  T
C638        N640   1.157       .  T
C641        C986   1.415       .  A
C641        C646   1.422       .  A
C642        C643   1.401       .  A
C642        H647   1.075       .  S
C643        C650   1.446       .  S
C644        C987   1.410       .  A
C644        C645   1.403       .  A
C645        C646   1.401       .  A
C645        H648   1.085       .  S
C646        C649   1.446       .  S
C649        N651   1.157       .  T
C650        N652   1.157       .  T
C653        C654   1.405       .  A
C653        C658   1.419       .  A
C654        C655   1.402       .  A
C654        H659   1.085       .  S
C655        C656   1.410       .  A
C655        C662   1.442       .  S
C656        C657   1.398       .  A
C657        C658   1.396       .  A
C657        H660   1.085       .  S
C658        C661   1.444       .  S
C661        N663   1.157       .  T
C662        N664   1.157       .  T
C665        C666   1.399       .  A
C665        C670   1.409       .  A
C666        C667   1.397       .  A
C666        H671   1.085       .  S
C667        C668   1.416       .  A
C667        C674   1.442       .  S
C668        C669   1.408       .  A
C669        C670   1.403       .  A
C669        H672   1.085       .  S
C670        C673   1.444       .  S
C673        N675   1.157       .  T
C674        N676   1.156       .  T
C677        C678   1.401       .  A
C677        C682   1.408       .  A
C678        C679   1.403       .  A
C678        H683   1.086       .  S
C679        C680   1.428       .  A
C679        C686   1.439       .  S
C680        C681   1.416       .  A
C681        C682   1.399       .  A
C681        H684   1.085       .  S
C682        C685   1.445       .  S
C685        N687   1.157       .  T
C686        N688   1.158       .  T
C689        C690   1.546       .  S
C689        C695   1.530       .  S
C689        C693   1.538       .  S
C689        C852   1.548       .  S
C690        H697   1.062       .  S
C690        C691   1.376       .  D
C691        C692   1.527       .  S
C691        C706   1.495       .  S
C692        C696   1.534       .  S
C692        C694   1.536       .  S
C692        H698   1.099       .  S
C693        H699   1.081       .  S
C693        C694   1.372       .  D
C694        C703   1.490       .  S
C695        H700   1.087       .  S
C695        C696   1.356       .  D
C696        C837   1.479       .  S
C701       C1046   1.546       .  S
C701        C707   1.529       .  S
C701        C705   1.546       .  S
C701        C813   1.543       .  S
C702        H709   1.072       .  S
C702        C703   1.371       .  D
C704       C1047   1.532       .  S
C704        C708   1.529       .  S
C704        C706   1.531       .  S
C704        H710   1.096       .  S
C705        H711   1.082       .  S
C705        C706   1.378       .  D
C707        H712   1.087       .  S
C707        C708   1.354       .  D
C708        C828   1.478       .  S
C713        C714   1.536       .  S
C713        C719   1.526       .  S
C713        C717   1.542       .  S
C713        C801   1.543       .  S
C714        H721   1.087       .  S
C714        C715   1.369       .  D
C715        C716   1.550       .  S
C715        C727   1.489       .  S
C716        C720   1.551       .  S
C716        C718   1.541       .  S
C716        H722   1.111       .  S
C717        H723   1.080       .  S
C717        C718   1.362       .  D
C718        C730   1.480       .  S
C719        H724   1.087       .  S
C719        C720   1.366       .  D
C720        C789   1.488       .  S
C725       C1070   1.539       .  S
C725        C731   1.532       .  S
C725        C729   1.529       .  S
C725        C777   1.536       .  S
C726        H733   1.086       .  S
C726        C727   1.366       .  D
C728       C1071   1.545       .  S
C728        C732   1.543       .  S
C728        C730   1.544       .  S
C728        H734   1.102       .  S
C729        H735   1.087       .  S
C729        C730   1.366       .  D
C731        H736   1.082       .  S
C731        C732   1.362       .  D
C732        C768   1.479       .  S
O737        V745   1.904   1_455  S
O738        V917   1.904       .  S
O739        V745   1.884       .  S
O740        V917   1.886   1_455  S
O741        V918   1.914   1_455  S
O741        C750   1.268       .  A
O742        V746   1.910       .  S
O742        C749   1.268       .  A
O743        V918   1.897       .  S
O743        C748   1.264       .  A
O744        V746   1.892   1_455  S
O744        C747   1.261       .  A
V745        O910   1.904   1_554  S
V745        O912   1.886   1_654  S
V746        O913   1.914   1_654  S
V746        O915   1.897   1_554  S
V746       V1089   2.086       .  T
C747       O1081   1.265       .  A
C747        C780   1.467       .  S
C748       O1082   1.266       .  A
C748        C816   1.485       .  S
C749       O1083   1.260       .  A
C749        C825   1.484       .  S
C750       O1084   1.262       .  A
C750        C765   1.488       .  S
O751        V759   1.896   1_554  S
O751        C761   1.263       .  A
O752        V931   1.897       .  S
O752        C762   1.264       .  A
O753        V759   1.905   1_554  S
O753        C763   1.266       .  A
O754        V931   1.908       .  S
O754        C764   1.267       .  A
O755        V932   1.898       .  S
O755        C764   1.263       .  A
O756        V760   1.893   1_554  S
O756        C763   1.263       .  A
O757        V932   1.904       .  S
O757        C762   1.266       .  A
O758        V760   1.902   1_554  S
O758        C761   1.266       .  A
V759        O924   1.897       .  S
V759        O926   1.908       .  S
V759        V760   2.085       .  T
V760        O927   1.898       .  S
V760        O929   1.904       .  S
C761        C804   1.486       .  S
C762        C840   1.486       .  S
C763        C849   1.484       .  S
C764        C792   1.489       .  S
C765       C1110   1.406       .  A
C765        C770   1.416       .  A
C766        C767   1.394       .  A
C766        H771   1.084       .  S
C767        C774   1.446       .  S
C768       C1111   1.409       .  A
C768        C769   1.403       .  A
C769        C770   1.407       .  A
C769        H772   1.084       .  S
C770        C773   1.443       .  S
C773        N775   1.157       .  T
C774        N776   1.157       .  T
C777        C778   1.411       .  A
C777       C1126   1.424       .  A
C778        C779   1.395       .  A
C778        H783   1.077       .  S
C779        C780   1.405       .  A
C779        C786   1.444   1_455  S
C780        C781   1.398       .  A
C781       C1126   1.403       .  A
C781       H1128   1.085       .  S
C782        C785   1.445       .  S
C785        N787   1.157       .  T
C786        N788   1.156       .  T
C789        C790   1.404       .  A
C789        C794   1.409       .  A
C790        C791   1.399       .  A
C790        H795   1.086       .  S
C791        C792   1.415       .  A
C791        C798   1.443       .  S
C792        C793   1.406       .  A
C793        C794   1.405       .  A
C793        H796   1.085       .  S
C794        C797   1.438       .  S
C797        N799   1.156       .  T
C798        N800   1.157       .  T
C801        C802   1.415       .  A
C801        C806   1.421       .  A
C802        C803   1.398       .  A
C802        H807   1.076       .  S
C803        C804   1.409       .  A
C803        C810   1.446       .  S
C804        C805   1.405       .  A
C805        C806   1.403       .  A
C805        H808   1.085       .  S
C806        C809   1.446       .  S
C809        N811   1.158       .  T
C810        N812   1.157       .  T
C813       C1158   1.415       .  A
C813        C818   1.422       .  A
C814        C815   1.401       .  A
C814        H819   1.075       .  S
C815        C822   1.446       .  S
C816       C1159   1.410       .  A
C816        C817   1.403       .  A
C817        C818   1.401       .  A
C817        H820   1.085       .  S
C818        C821   1.446       .  S
C821        N823   1.157       .  T
C822        N824   1.157       .  T
C825        C826   1.405       .  A
C825        C830   1.419       .  A
C826        C827   1.402       .  A
C826        H831   1.085       .  S
C827        C828   1.410       .  A
C827        C834   1.442       .  S
C828        C829   1.398       .  A
C829        C830   1.396       .  A
C829        H832   1.085       .  S
C830        C833   1.444       .  S
C833        N835   1.157       .  T
C834        N836   1.157       .  T
C837        C838   1.399       .  A
C837        C842   1.409       .  A
C838        C839   1.397       .  A
C838        H843   1.085       .  S
C839        C840   1.416       .  A
C839        C846   1.442       .  S
C840        C841   1.408       .  A
C841        C842   1.403       .  A
C841        H844   1.085       .  S
C842        C845   1.444       .  S
C845        N847   1.157       .  T
C846        N848   1.156       .  T
C849        C850   1.401       .  A
C849        C854   1.407       .  A
C850        C851   1.403       .  A
C850        H855   1.086       .  S
C851        C852   1.428       .  A
C851        C858   1.439       .  S
C852        C853   1.416       .  A
C853        C854   1.399       .  A
C853        H856   1.085       .  S
C854        C857   1.445       .  S
C857        N859   1.157       .  T
C858        N860   1.158       .  T
C861        C862   1.546       .  S
C861        C867   1.530       .  S
C861        C865   1.538       .  S
C861       C1024   1.548       .  S
C862        H869   1.062       .  S
C862        C863   1.376       .  D
C863        C864   1.527       .  S
C863        C878   1.495       .  S
C864        C868   1.534       .  S
C864        C866   1.536       .  S
C864        H870   1.099       .  S
C865        H871   1.081       .  S
C865        C866   1.372       .  D
C866        C875   1.490       .  S
C867        H872   1.087       .  S
C867        C868   1.356       .  D
C868       C1009   1.479       .  S
C873       C1218   1.546       .  S
C873        C879   1.529       .  S
C873        C877   1.546       .  S
C873        C985   1.543       .  S
C874        H881   1.072       .  S
C874        C875   1.371       .  D
C876       C1219   1.532       .  S
C876        C880   1.529       .  S
C876        C878   1.531       .  S
C876        H882   1.096       .  S
C877        H883   1.082       .  S
C877        C878   1.378       .  D
C879        H884   1.087       .  S
C879        C880   1.354       .  D
C880       C1000   1.478       .  S
C885        C886   1.536       .  S
C885        C891   1.526       .  S
C885        C889   1.542       .  S
C885        C973   1.543       .  S
C886        H893   1.087       .  S
C886        C887   1.369       .  D
C887        C888   1.550       .  S
C887        C899   1.489       .  S
C888        C892   1.551       .  S
C888        C890   1.541       .  S
C888        H894   1.111       .  S
C889        H895   1.080       .  S
C889        C890   1.362       .  D
C890        C902   1.480       .  S
C891        H896   1.087       .  S
C891        C892   1.366       .  D
C892        C961   1.488       .  S
C897       C1242   1.539       .  S
C897        C903   1.532       .  S
C897        C901   1.529       .  S
C897        C949   1.536       .  S
C898        H905   1.086       .  S
C898        C899   1.366       .  D
C900       C1243   1.545       .  S
C900        C904   1.543       .  S
C900        C902   1.544       .  S
C900        H906   1.102       .  S
C901        H907   1.087       .  S
C901        C902   1.366       .  D
C903        H908   1.082       .  S
C903        C904   1.362       .  D
C904        C940   1.479       .  S
O909        V917   1.904   1_455  S
O911        V917   1.884       .  S
O913        C922   1.268       .  A
O914        V918   1.910       .  S
O914        C921   1.268       .  A
O915        C920   1.264       .  A
O916        V918   1.892   1_455  S
O916        C919   1.261       .  A
V918       V1261   2.086       .  T
C919       O1253   1.265       .  A
C919        C952   1.467       .  S
C920       O1254   1.266       .  A
C920        C988   1.485       .  S
C921       O1255   1.260       .  A
C921        C997   1.484       .  S
C922       O1256   1.262       .  A
C922        C937   1.488       .  S
O923        V931   1.896       .  S
O923        C933   1.263       .  A
O924        C934   1.264       .  A
O925        V931   1.905       .  S
O925        C935   1.266       .  A
O926        C936   1.267       .  A
O927        C936   1.263       .  A
O928        V932   1.893       .  S
O928        C935   1.263       .  A
O929        C934   1.266       .  A
O930        V932   1.902       .  S
O930        C933   1.266       .  A
V931        V932   2.085       .  T
C933        C976   1.486       .  S
C934       C1012   1.486       .  S
C935       C1021   1.484       .  S
C936        C964   1.489       .  S
C937       C1282   1.406       .  A
C937        C942   1.416       .  A
C938        C939   1.394       .  A
C938        H943   1.084       .  S
C939        C946   1.446       .  S
C940       C1283   1.409       .  A
C940        C941   1.403       .  A
C941        C942   1.407       .  A
C941        H944   1.084       .  S
C942        C945   1.443       .  S
C945        N947   1.157       .  T
C946        N948   1.157       .  T
C949        C950   1.411       .  A
C949       C1298   1.424       .  A
C950        C951   1.395       .  A
C950        H955   1.077       .  S
C951        C952   1.405       .  A
C951        C958   1.444   1_455  S
C952        C953   1.398       .  A
C953       C1298   1.403       .  A
C953       H1300   1.085       .  S
C954        C957   1.445       .  S
C957        N959   1.157       .  T
C958        N960   1.156       .  T
C961        C962   1.404       .  A
C961        C966   1.409       .  A
C962        C963   1.399       .  A
C962        H967   1.086       .  S
C963        C964   1.415       .  A
C963        C970   1.443       .  S
C964        C965   1.406       .  A
C965        C966   1.405       .  A
C965        H968   1.085       .  S
C966        C969   1.438       .  S
C969        N971   1.156       .  T
C970        N972   1.157       .  T
C973        C974   1.415       .  A
C973        C978   1.421       .  A
C974        C975   1.398       .  A
C974        H979   1.076       .  S
C975        C976   1.409       .  A
C975        C982   1.446       .  S
C976        C977   1.405       .  A
C977        C978   1.403       .  A
C977        H980   1.085       .  S
C978        C981   1.446       .  S
C981        N983   1.158       .  T
C982        N984   1.157       .  T
C985       C1330   1.415       .  A
C985        C990   1.422       .  A
C986        C987   1.401       .  A
C986        H991   1.075       .  S
C987        C994   1.446       .  S
C988       C1331   1.410       .  A
C988        C989   1.403       .  A
C989        C990   1.401       .  A
C989        H992   1.085       .  S
C990        C993   1.446       .  S
C993        N995   1.157       .  T
C994        N996   1.157       .  T
C997        C998   1.405       .  A
C997       C1002   1.419       .  A
C998        C999   1.402       .  A
C998       H1003   1.085       .  S
C999       C1000   1.410       .  A
C999       C1006   1.442       .  S
C1000      C1001   1.398       .  A
C1001      C1002   1.396       .  A
C1001      H1004   1.085       .  S
C1002      C1005   1.444       .  S
C1005      N1007   1.157       .  T
C1006      N1008   1.157       .  T
C1009      C1010   1.399       .  A
C1009      C1014   1.409       .  A
C1010      C1011   1.397       .  A
C1010      H1015   1.085       .  S
C1011      C1012   1.416       .  A
C1011      C1018   1.442       .  S
C1012      C1013   1.408       .  A
C1013      C1014   1.403       .  A
C1013      H1016   1.085       .  S
C1014      C1017   1.444       .  S
C1017      N1019   1.157       .  T
C1018      N1020   1.156       .  T
C1021      C1022   1.401       .  A
C1021      C1026   1.407       .  A
C1022      C1023   1.403       .  A
C1022      H1027   1.086       .  S
C1023      C1024   1.428       .  A
C1023      C1030   1.439       .  S
C1024      C1025   1.416       .  A
C1025      C1026   1.399       .  A
C1025      H1028   1.085       .  S
C1026      C1029   1.445       .  S
C1029      N1031   1.157       .  T
C1030      N1032   1.158       .  T
C1033      C1034   1.546       .  S
C1033      C1039   1.530       .  S
C1033      C1037   1.538       .  S
C1033      C1196   1.549       .  S
C1034      H1041   1.061       .  S
C1034      C1035   1.376       .  D
C1035      C1036   1.527       .  S
C1035      C1050   1.495       .  S
C1036      C1040   1.534       .  S
C1036      C1038   1.536       .  S
C1036      H1042   1.099       .  S
C1037      H1043   1.081       .  S
C1037      C1038   1.372       .  D
C1038      C1047   1.490       .  S
C1039      H1044   1.087       .  S
C1039      C1040   1.356       .  D
C1040      C1181   1.479       .  S
C1045      C1051   1.529       .  S
C1045      C1049   1.546       .  S
C1045      C1157   1.543       .  S
C1046      H1053   1.072       .  S
C1046      C1047   1.371       .  D
C1048      C1052   1.529   1_545  S
C1048      C1050   1.532   1_545  S
C1048      H1054   1.096       .  S
C1049      H1055   1.082       .  S
C1049      C1050   1.378       .  D
C1051      H1056   1.087       .  S
C1051      C1052   1.354       .  D
C1052      C1172   1.478       .  S
C1057      C1058   1.536       .  S
C1057      C1063   1.526       .  S
C1057      C1061   1.542       .  S
C1057      C1145   1.543       .  S
C1058      H1065   1.087       .  S
C1058      C1059   1.369       .  D
C1059      C1060   1.550       .  S
C1059      C1071   1.489       .  S
C1060      C1064   1.551       .  S
C1060      C1062   1.541       .  S
C1060      H1066   1.111       .  S
C1061      H1067   1.080       .  S
C1061      C1062   1.362       .  D
C1062      C1074   1.480       .  S
C1063      H1068   1.087       .  S
C1063      C1064   1.366       .  D
C1064      C1133   1.488       .  S
C1069      C1075   1.532       .  S
C1069      C1073   1.529       .  S
C1069      C1121   1.536       .  S
C1070      H1077   1.086       .  S
C1070      C1071   1.366       .  D
C1072      C1076   1.543       .  S
C1072      C1074   1.544       .  S
C1072      H1078   1.102       .  S
C1073      H1079   1.087       .  S
C1073      C1074   1.366       .  D
C1075      H1080   1.082       .  S
C1075      C1076   1.362       .  D
C1076      C1112   1.479       .  S
O1081      V1089   1.904   1_455  S
O1082      V1261   1.904       .  S
O1083      V1089   1.884       .  S
O1084      V1261   1.886   1_455  S
O1085      V1262   1.914   1_455  S
O1085      C1094   1.268       .  A
O1086      V1090   1.910       .  S
O1086      C1093   1.268       .  A
O1087      V1262   1.897       .  S
O1087      C1092   1.263       .  A
O1088      V1090   1.892   1_455  S
O1088      C1091   1.261       .  A
V1089      O1254   1.904   1_554  S
V1089      O1256   1.886   1_654  S
V1090      O1257   1.914   1_654  S
V1090      O1259   1.897   1_554  S
C1091      C1124   1.467       .  S
C1092      C1160   1.485       .  S
C1093      C1169   1.484       .  S
C1094      C1109   1.488       .  S
O1095      V1103   1.896   1_554  S
O1095      C1105   1.263       .  A
O1096      V1275   1.897       .  S
O1096      C1106   1.264       .  A
O1097      V1103   1.905   1_554  S
O1097      C1107   1.266       .  A
O1098      V1275   1.908       .  S
O1098      C1108   1.267       .  A
O1099      V1276   1.897       .  S
O1099      C1108   1.263       .  A
O1100      V1104   1.893   1_554  S
O1100      C1107   1.263       .  A
O1101      V1276   1.904       .  S
O1101      C1106   1.266       .  A
O1102      V1104   1.902   1_554  S
O1102      C1105   1.266       .  A
V1103      O1268   1.897       .  S
V1103      O1270   1.908       .  S
V1103      V1104   2.085       .  T
V1104      O1271   1.897       .  S
V1104      O1273   1.904       .  S
C1105      C1148   1.486       .  S
C1106      C1184   1.486       .  S
C1107      C1193   1.484       .  S
C1108      C1136   1.489       .  S
C1109      C1114   1.416       .  A
C1110      C1111   1.394       .  A
C1110      H1115   1.084       .  S
C1111      C1118   1.446       .  S
C1112      C1113   1.403       .  A
C1113      C1114   1.407       .  A
C1113      H1116   1.084       .  S
C1114      C1117   1.443       .  S
C1117      N1119   1.157       .  T
C1118      N1120   1.157       .  T
C1121      C1122   1.411       .  A
C1122      C1123   1.395       .  A
C1122      H1127   1.077       .  S
C1123      C1124   1.405       .  A
C1123      C1130   1.444   1_455  S
C1124      C1125   1.398       .  A
C1126      C1129   1.445       .  S
C1129      N1131   1.157       .  T
C1130      N1132   1.156       .  T
C1133      C1134   1.404       .  A
C1133      C1138   1.409       .  A
C1134      C1135   1.399       .  A
C1134      H1139   1.086       .  S
C1135      C1136   1.415       .  A
C1135      C1142   1.443       .  S
C1136      C1137   1.406       .  A
C1137      C1138   1.405       .  A
C1137      H1140   1.085       .  S
C1138      C1141   1.438       .  S
C1141      N1143   1.156       .  T
C1142      N1144   1.157       .  T
C1145      C1146   1.415       .  A
C1145      C1150   1.421       .  A
C1146      C1147   1.398       .  A
C1146      H1151   1.076       .  S
C1147      C1148   1.409       .  A
C1147      C1154   1.446       .  S
C1148      C1149   1.405       .  A
C1149      C1150   1.403       .  A
C1149      H1152   1.085       .  S
C1150      C1153   1.446       .  S
C1153      N1155   1.158       .  T
C1154      N1156   1.157       .  T
C1157      C1162   1.422       .  A
C1158      C1159   1.401       .  A
C1158      H1163   1.075       .  S
C1159      C1166   1.446       .  S
C1160      C1161   1.403       .  A
C1161      C1162   1.401       .  A
C1161      H1164   1.085       .  S
C1162      C1165   1.446       .  S
C1165      N1167   1.157       .  T
C1166      N1168   1.157       .  T
C1169      C1170   1.405       .  A
C1169      C1174   1.419   1_565  A
C1170      C1171   1.402       .  A
C1170      H1175   1.085       .  S
C1171      C1172   1.410       .  A
C1171      C1178   1.442       .  S
C1172      C1173   1.398   1_565  A
C1173      C1174   1.396       .  A
C1173      H1176   1.085       .  S
C1174      C1177   1.444       .  S
C1177      N1179   1.157       .  T
C1178      N1180   1.157       .  T
C1181      C1182   1.399       .  A
C1181      C1186   1.409       .  A
C1182      C1183   1.397       .  A
C1182      H1187   1.085       .  S
C1183      C1184   1.416       .  A
C1183      C1190   1.442       .  S
C1184      C1185   1.408       .  A
C1185      C1186   1.403       .  A
C1185      H1188   1.085       .  S
C1186      C1189   1.444       .  S
C1189      N1191   1.157       .  T
C1190      N1192   1.156       .  T
C1193      C1194   1.401       .  A
C1193      C1198   1.408       .  A
C1194      C1195   1.403       .  A
C1194      H1199   1.086       .  S
C1195      C1196   1.428       .  A
C1195      C1202   1.439       .  S
C1196      C1197   1.416       .  A
C1197      C1198   1.399       .  A
C1197      H1200   1.085       .  S
C1198      C1201   1.445       .  S
C1201      N1203   1.157       .  T
C1202      N1204   1.158       .  T
C1205      C1206   1.546       .  S
C1205      C1211   1.530       .  S
C1205      C1209   1.538       .  S
C1205      C1368   1.549       .  S
C1206      H1213   1.061       .  S
C1206      C1207   1.376       .  D
C1207      C1208   1.527       .  S
C1207      C1222   1.495       .  S
C1208      C1212   1.534       .  S
C1208      C1210   1.536       .  S
C1208      H1214   1.099       .  S
C1209      H1215   1.081       .  S
C1209      C1210   1.372       .  D
C1210      C1219   1.490       .  S
C1211      H1216   1.087       .  S
C1211      C1212   1.356       .  D
C1212      C1353   1.479       .  S
C1217      C1223   1.529       .  S
C1217      C1221   1.546       .  S
C1217      C1329   1.543       .  S
C1218      H1225   1.072       .  S
C1218      C1219   1.371       .  D
C1220      C1224   1.529   1_545  S
C1220      C1222   1.532   1_545  S
C1220      H1226   1.096       .  S
C1221      H1227   1.082       .  S
C1221      C1222   1.378       .  D
C1223      H1228   1.087       .  S
C1223      C1224   1.354       .  D
C1224      C1344   1.478       .  S
C1229      C1230   1.536       .  S
C1229      C1235   1.526       .  S
C1229      C1233   1.542       .  S
C1229      C1317   1.543       .  S
C1230      H1237   1.087       .  S
C1230      C1231   1.369       .  D
C1231      C1232   1.550       .  S
C1231      C1243   1.489       .  S
C1232      C1236   1.551       .  S
C1232      C1234   1.541       .  S
C1232      H1238   1.111       .  S
C1233      H1239   1.080       .  S
C1233      C1234   1.362       .  D
C1234      C1246   1.480       .  S
C1235      H1240   1.087       .  S
C1235      C1236   1.366       .  D
C1236      C1305   1.488       .  S
C1241      C1247   1.532       .  S
C1241      C1245   1.529       .  S
C1241      C1293   1.536       .  S
C1242      H1249   1.086       .  S
C1242      C1243   1.366       .  D
C1244      C1248   1.543       .  S
C1244      C1246   1.544       .  S
C1244      H1250   1.102       .  S
C1245      H1251   1.087       .  S
C1245      C1246   1.366       .  D
C1247      H1252   1.082       .  S
C1247      C1248   1.362       .  D
C1248      C1284   1.479       .  S
O1253      V1261   1.904   1_455  S
O1255      V1261   1.884       .  S
O1257      C1266   1.268       .  A
O1258      V1262   1.910       .  S
O1258      C1265   1.268       .  A
O1259      C1264   1.263       .  A
O1260      V1262   1.892   1_455  S
O1260      C1263   1.261       .  A
C1263      C1296   1.467       .  S
C1264      C1332   1.485       .  S
C1265      C1341   1.484       .  S
C1266      C1281   1.488       .  S
O1267      V1275   1.896       .  S
O1267      C1277   1.263       .  A
O1268      C1278   1.264       .  A
O1269      V1275   1.905       .  S
O1269      C1279   1.266       .  A
O1270      C1280   1.267       .  A
O1271      C1280   1.263       .  A
O1272      V1276   1.893       .  S
O1272      C1279   1.263       .  A
O1273      C1278   1.266       .  A
O1274      V1276   1.902       .  S
O1274      C1277   1.266       .  A
V1275      V1276   2.085       .  T
C1277      C1320   1.486       .  S
C1278      C1356   1.486       .  S
C1279      C1365   1.484       .  S
C1280      C1308   1.489       .  S
C1281      C1286   1.416       .  A
C1282      C1283   1.394       .  A
C1282      H1287   1.084       .  S
C1283      C1290   1.446       .  S
C1284      C1285   1.403       .  A
C1285      C1286   1.407       .  A
C1285      H1288   1.084       .  S
C1286      C1289   1.443       .  S
C1289      N1291   1.157       .  T
C1290      N1292   1.157       .  T
C1293      C1294   1.411       .  A
C1294      C1295   1.395       .  A
C1294      H1299   1.077       .  S
C1295      C1296   1.405       .  A
C1295      C1302   1.444   1_455  S
C1296      C1297   1.398       .  A
C1298      C1301   1.445       .  S
C1301      N1303   1.157       .  T
C1302      N1304   1.156       .  T
C1305      C1306   1.404       .  A
C1305      C1310   1.409       .  A
C1306      C1307   1.399       .  A
C1306      H1311   1.086       .  S
C1307      C1308   1.415       .  A
C1307      C1314   1.443       .  S
C1308      C1309   1.406       .  A
C1309      C1310   1.405       .  A
C1309      H1312   1.085       .  S
C1310      C1313   1.438       .  S
C1313      N1315   1.156       .  T
C1314      N1316   1.157       .  T
C1317      C1318   1.415       .  A
C1317      C1322   1.421       .  A
C1318      C1319   1.398       .  A
C1318      H1323   1.076       .  S
C1319      C1320   1.409       .  A
C1319      C1326   1.446       .  S
C1320      C1321   1.405       .  A
C1321      C1322   1.403       .  A
C1321      H1324   1.085       .  S
C1322      C1325   1.446       .  S
C1325      N1327   1.158       .  T
C1326      N1328   1.157       .  T
C1329      C1334   1.422       .  A
C1330      C1331   1.401       .  A
C1330      H1335   1.075       .  S
C1331      C1338   1.446       .  S
C1332      C1333   1.403       .  A
C1333      C1334   1.401       .  A
C1333      H1336   1.085       .  S
C1334      C1337   1.446       .  S
C1337      N1339   1.157       .  T
C1338      N1340   1.157       .  T
C1341      C1342   1.405       .  A
C1341      C1346   1.419   1_565  A
C1342      C1343   1.402       .  A
C1342      H1347   1.085       .  S
C1343      C1344   1.410       .  A
C1343      C1350   1.442       .  S
C1344      C1345   1.398   1_565  A
C1345      C1346   1.396       .  A
C1345      H1348   1.085       .  S
C1346      C1349   1.444       .  S
C1349      N1351   1.157       .  T
C1350      N1352   1.157       .  T
C1353      C1354   1.399       .  A
C1353      C1358   1.409       .  A
C1354      C1355   1.397       .  A
C1354      H1359   1.085       .  S
C1355      C1356   1.416       .  A
C1355      C1362   1.442       .  S
C1356      C1357   1.408       .  A
C1357      C1358   1.403       .  A
C1357      H1360   1.085       .  S
C1358      C1361   1.444       .  S
C1361      N1363   1.157       .  T
C1362      N1364   1.156       .  T
C1365      C1366   1.401       .  A
C1365      C1370   1.408       .  A
C1366      C1367   1.403       .  A
C1366      H1371   1.086       .  S
C1367      C1368   1.428       .  A
C1367      C1374   1.439       .  S
C1368      C1369   1.416       .  A
C1369      C1370   1.399       .  A
C1369      H1372   1.085       .  S
C1370      C1373   1.445       .  S
C1373      N1375   1.157       .  T
C1374      N1376   1.158       .  T
