geometry optimzed in LAMMPS
_audit_creation_date              2020-11-30 
_audit_creation_method            'lammps2cif' 
_symmetry_space_group_name_H-M    'P1' 
_symmetry_Int_Tables_number       1 
_symmetry_cell_setting            triclinic 
loop_ 
_symmetry_equiv_pos_as_xyz 
  x,y,z 
_cell_length_a                    29.18259222 
_cell_length_b                    29.18287566486866 
_cell_length_c                    26.907991761116243 
_cell_angle_alpha                 90.1546340681311 
_cell_angle_beta                  90.2220942093079 
_cell_angle_gamma                 90.04062279187652 
loop_ 
_atom_site_label 
_atom_site_type_symbol 
_atom_site_fract_x 
_atom_site_fract_y 
_atom_site_fract_z 
_atom_site_charge 
O1          O  0.07017317  0.99623778  0.44765870    -0.72700
O2          O  0.93257249  0.00098464  0.45009994    -0.73600
O3          O  0.00390475  0.06735523  0.44424817    -0.62300
O4          O  0.99851750  0.92946606  0.45387136    -0.70700
O5          O  0.00176372  0.93622851  0.04788929    -0.70200
O6          O  0.99769205  0.07373676  0.04794506    -0.61500
O7          O  0.93086284  0.00244230  0.04579513    -0.74000
O8          O  0.06820834  0.00656054  0.04989128    -0.72800
Cu9        Cu  0.00128246  0.99825701  0.44599163     1.04600
Cu10       Cu  0.99950131  0.00482085  0.05078543     1.04300
C11         C  0.09054687  0.00215796  0.00943620     0.93500
C12         C  0.91018699  0.00632246  0.00412939     0.92700
C13         C  0.00303246  0.09525574  0.00709873     0.84800
C14         C  0.99894647  0.91449972  0.00673872     0.91100
O15         O  0.07521776  0.00154715  0.21606186    -0.72700
O16         O  0.93791169  0.00533214  0.21149854    -0.73600
O17         O  0.00821719  0.07214538  0.21312166    -0.62300
O18         O  0.00459102  0.93471595  0.21454478    -0.70700
O19         O  0.00924426  0.93574728  0.29695118    -0.70200
O20         O  0.00097204  0.07330357  0.29525754    -0.61500
O21         O  0.93631838  0.00076174  0.29386119    -0.74000
O22         O  0.07385674  0.00872632  0.29824134    -0.72800
Cu23       Cu  0.00658645  0.00340809  0.21090791     1.04600
Cu24       Cu  0.00500918  0.00465281  0.29903232     1.04300
C25         C  0.09616638  0.00529499  0.25763694     0.93500
C26         C  0.91549818  0.00299759  0.25208168     0.92700
C27         C  0.00409932  0.09434115  0.25385687     0.84800
C28         C  0.00736069  0.91360297  0.25594399     0.91100
O29         O  0.04220308  0.43779787  0.00178307    -0.72700
O30         O  0.03633565  0.57524829  0.00554408    -0.73600
O31         O  0.03953270  0.50529989  0.07815526    -0.62300
O32         O  0.03469154  0.50535142  0.42999912    -0.70700
O33         O  0.95876289  0.49984060  0.42859367    -0.70200
O34         O  0.96340172  0.50577964  0.07782699    -0.61500
O35         O  0.96035290  0.57231572  0.00051379    -0.74000
O36         O  0.96627780  0.43488475  0.00683176    -0.72800
Cu37       Cu  0.04193613  0.50672242  0.00359486     1.04600
Cu38       Cu  0.96057980  0.50347408  0.00359351     1.04300
C39         C  0.00512177  0.41478943  0.00514764     0.93500
C40         C  0.99755079  0.59530011  0.00286550     0.92700
C41         C  0.00144810  0.50532349  0.10141592     0.84800
C42         C  0.99700602  0.50306818  0.40588375     0.91100
O43         O  0.96284070  0.50264147  0.17853501    -0.72700
O44         O  0.96022568  0.50561195  0.32723645    -0.73600
O45         O  0.96216321  0.57293487  0.25069879    -0.62300
O46         O  0.96130946  0.43530222  0.25510462    -0.70700
O47         O  0.03740469  0.43499776  0.25199377    -0.70200
O48         O  0.03808529  0.57237779  0.25739851    -0.61500
O49         O  0.03625940  0.50195180  0.32896206    -0.74000
O50         O  0.03889738  0.50579504  0.17995957    -0.72800
Cu51       Cu  0.95894928  0.50411780  0.25280050     1.04600
Cu52       Cu  0.04035658  0.50374291  0.25461409     1.04300
C53         C  0.00112738  0.50457626  0.15581732     0.93500
C54         C  0.99784630  0.50368482  0.35151338     0.92700
C55         C  0.00033194  0.59420539  0.25408927     0.84800
C56         C  0.99927795  0.41361977  0.25384352     0.91100
O57         O  0.57105709  0.03569698  0.50048135    -0.72700
O58         O  0.43341235  0.03667308  0.49993263    -0.73600
O59         O  0.50398718  0.03743887  0.07399335    -0.62300
O60         O  0.50287190  0.03825415  0.42608491    -0.70700
O61         O  0.50531361  0.96215076  0.42444338    -0.70200
O62         O  0.50135444  0.96136468  0.07501148    -0.61500
O63         O  0.43274415  0.96078604  0.49301670    -0.74000
O64         O  0.57026284  0.95959683  0.50307621    -0.72800
Cu65       Cu  0.50226736  0.03886356  0.50055546     1.04600
Cu66       Cu  0.50146636  0.95746369  0.49827616     1.04300
C67         C  0.59222673  0.99745229  0.50198253     0.93500
C68         C  0.41152641  0.99900525  0.49515236     0.92700
C69         C  0.50352756  0.99967285  0.09791420     0.84800
C70         C  0.50477280  0.00058002  0.40192639     0.91100
O71         O  0.50427661  0.96297074  0.32418312    -0.72700
O72         O  0.50734595  0.96215508  0.17575277    -0.73600
O73         O  0.57466125  0.96237986  0.25280853    -0.62300
O74         O  0.43719586  0.96231737  0.24771431    -0.70700
O75         O  0.43709676  0.03832610  0.25293299    -0.70200
O76         O  0.57475127  0.03839644  0.24789179    -0.61500
O77         O  0.50378135  0.03820049  0.17566215    -0.74000
O78         O  0.50789336  0.03904356  0.32451864    -0.72800
Cu79       Cu  0.50593154  0.95978338  0.25007977     1.04600
Cu80       Cu  0.50594148  0.04120845  0.25015996     1.04300
C81         C  0.50584127  0.00099434  0.34770502     0.93500
C82         C  0.50510941  0.00007947  0.15228815     0.92700
C83         C  0.59623136  0.00038608  0.25073028     0.84800
C84         C  0.41558687  0.00024048  0.25072238     0.91100
C85         C  0.21348871  0.99199390  0.23575808     0.30000
C86         C  0.25236763  0.97712378  0.20986023    -0.36300
C87         C  0.29471537  0.98788136  0.23167183     0.16000
C88         C  0.29860594  0.01247085  0.27540505     0.21800
C89         C  0.25965346  0.02649912  0.30190775    -0.34400
C90         C  0.21722319  0.01500424  0.28049460     0.15900
O91         O  0.17059814  0.98605441  0.22173830    -0.23200
C92         C  0.14644230  0.00484169  0.25828458     0.05700
C93         C  0.17356408  0.02321133  0.29606982    -0.31300
O94         O  0.34165697  0.02049050  0.28779532    -0.23100
C95         C  0.36545977  0.00001416  0.25199722    -0.03100
C96         C  0.33817603  0.97881144  0.21633120    -0.17600
H97         H  0.24976792  0.95866838  0.17504780     0.20400
H98         H  0.26224901  0.04518270  0.33657192     0.18800
H99         H  0.16268609  0.04054422  0.32960784     0.18700
H100        H  0.34888032  0.96045391  0.18335453     0.14600
C101        C  0.79766397  0.99544466  0.27425901     0.30000
C102        C  0.75802395  0.98575281  0.30160606    -0.36300
C103        C  0.71630214  0.99295823  0.27686021     0.16000
C104        C  0.71375531  0.00948838  0.22885464     0.21800
C105        C  0.75340137  0.01879646  0.20137334    -0.34400
C106        C  0.79512068  0.01082126  0.22582386     0.15900
O107        O  0.84023539  0.99088179  0.28996318    -0.26400
C108        C  0.86525640  0.00298029  0.25092866     0.05700
C109        C  0.83906410  0.01562381  0.20990352    -0.31300
O110        O  0.67117816  0.01456728  0.21334353    -0.23100
C111        C  0.64628044  0.00043605  0.25160545    -0.03100
C112        C  0.67235524  0.98639518  0.29208149    -0.17600
H113        H  0.75962160  0.97324273  0.33942513     0.20400
H114        H  0.75181909  0.03116481  0.16349703     0.18800
H115        H  0.85074254  0.02700952  0.17382622     0.18700
H116        H  0.66056384  0.97388894  0.32767186     0.14600
C117        C  0.01725211  0.71147862  0.27385975     0.30000
C118        C  0.03350542  0.75083542  0.29833488    -0.36300
C119        C  0.02078308  0.79288704  0.27725230     0.16000
C120        C  0.99495144  0.79593148  0.23427226     0.21800
C121        C  0.97829492  0.75661695  0.21015032    -0.34400
C122        C  0.98987699  0.71465265  0.23202297     0.15900
O123        O  0.02478059  0.66867011  0.28713132    -0.26400
C124        C  0.00106416  0.64431633  0.25402144     0.05700
C125        C  0.97844153  0.67099521  0.21903386    -0.31300
O126        O  0.98743370  0.83865365  0.22078463    -0.23100
C127        C  0.00794927  0.86332840  0.25604393    -0.03100
C128        C  0.02914967  0.83674864  0.29228662    -0.17600
H129        H  0.05414301  0.74881146  0.33177398     0.20400
H130        H  0.95727618  0.75864442  0.17696475     0.18800
H131        H  0.95751902  0.65974018  0.18800676     0.18700
H132        H  0.04810109  0.84813440  0.32470386     0.14600
C133        C  0.99317186  0.21212958  0.27618753     0.30000
C134        C  0.98215397  0.25181902  0.30318264    -0.36300
C135        C  0.99028754  0.29354873  0.27897703     0.16000
C136        C  0.00877186  0.29603212  0.23185795     0.21800
C137        C  0.01915037  0.25638398  0.20465879    -0.34400
C138        C  0.01038489  0.21471792  0.22853754     0.15900
O139        O  0.98879625  0.16949747  0.29162004    -0.26400
C140        C  0.00294484  0.14458199  0.25312841     0.05700
C141        C  0.01655429  0.17086312  0.21278501    -0.31300
O142        O  0.01474765  0.33856351  0.21688505    -0.23100
C143        C  0.99916157  0.36355794  0.25452401    -0.03100
C144        C  0.98333447  0.33756569  0.29411286    -0.17600
H145        H  0.96830716  0.25027119  0.34041010     0.20400
H146        H  0.03313528  0.25792066  0.16749373     0.18800
H147        H  0.02965277  0.15929659  0.17731794     0.18700
H148        H  0.96950125  0.34945392  0.32911085     0.14600
C149        C  0.29263368  0.00584078  0.02982709     0.30000
C150        C  0.25346912  0.01668649  0.05765231    -0.36300
C151        C  0.21123884  0.00689217  0.03484271     0.16000
C152        C  0.21020719  0.99236548  0.46722119     0.21800
C153        C  0.25009104  0.97458473  0.44546474    -0.34400
C154        C  0.29162418  0.98755533  0.46791957     0.15900
O155        O  0.33561337  0.01321214  0.04311804    -0.26400
C156        C  0.36141921  0.99989293  0.49223681     0.05700
C157        C  0.33566881  0.97545557  0.45755663    -0.31300
O158        O  0.16764925  0.98322874  0.45372923    -0.23100
C159        C  0.14247686  0.00533462  0.48722708    -0.03100
C160        C  0.16755458  0.01412121  0.05064443    -0.17600
H161        H  0.25573984  0.03214646  0.09416418     0.20400
H162        H  0.24878077  0.95154451  0.41385999     0.18800
H163        H  0.34776015  0.95277792  0.42851035     0.18700
H164        H  0.15649457  0.02881232  0.08555907     0.14600
C165        C  0.79265852  0.98622496  0.01576947     0.30000
C166        C  0.75318637  0.96267404  0.03075613    -0.36300
C167        C  0.71137058  0.98099352  0.01447803     0.16000
C168        C  0.70926555  0.00910558  0.47782787     0.21800
C169        C  0.74813782  0.02296157  0.45129155    -0.34400
C170        C  0.79051509  0.01038907  0.47179741     0.15900
O171        O  0.83527610  0.97506728  0.02667366    -0.26400
C172        C  0.86136331  0.99895100  0.49248525     0.05700
C173        C  0.83396350  0.01824516  0.45572313    -0.31300
O174        O  0.66631062  0.01784421  0.46589134    -0.23100
C175        C  0.64236857  0.99703573  0.50121798    -0.03100
C176        C  0.66762109  0.96652939  0.02191774    -0.17600
H177        H  0.75496084  0.93209585  0.05336733     0.20400
H178        H  0.74552474  0.04230194  0.41711756     0.18800
H179        H  0.84459965  0.03612222  0.42248212     0.18700
H180        H  0.65623186  0.93686207  0.04260278     0.14600
C181        C  0.98227597  0.79218182  0.48465243     0.30000
C182        C  0.96319644  0.75222274  0.46404760    -0.36300
C183        C  0.97601585  0.71084052  0.48657585     0.16000
C184        C  0.00778240  0.71270391  0.02546388     0.21800
C185        C  0.02127627  0.75214833  0.05154926    -0.34400
C186        C  0.00964071  0.79400242  0.02946856     0.15900
O187        O  0.97605771  0.83439306  0.46851668    -0.26400
C188        C  0.99878139  0.86428137  0.00683936     0.05700
C189        C  0.01715844  0.83780112  0.04489172    -0.31300
O190        O  0.01593228  0.67007690  0.03877579    -0.23100
C191        C  0.99596045  0.64534164  0.00325988    -0.03100
C192        C  0.96503897  0.66670072  0.47495946    -0.17600
H193        H  0.94045588  0.75327624  0.43214521     0.20400
H194        H  0.03958496  0.75031940  0.08652704     0.18800
H195        H  0.03400819  0.84921648  0.07862183     0.18700
H196        H  0.94294704  0.65458155  0.44529102     0.14600
C197        C  0.01370533  0.29316904  0.47200155     0.30000
C198        C  0.02859492  0.25435354  0.44545166    -0.36300
C199        C  0.01360970  0.21179653  0.46366551     0.16000
C200        C  0.99631780  0.21344539  0.02980622     0.21800
C201        C  0.98157814  0.25355652  0.05378111    -0.34400
C202        C  0.99500318  0.29496138  0.03178804     0.15900
O203        O  0.02336747  0.33640580  0.46198017    -0.26400
C204        C  0.00713525  0.36470128  0.00785409     0.05700
C205        C  0.98435991  0.33908124  0.04354417    -0.31300
O206        O  0.98640644  0.17103614  0.04287855    -0.23100
C207        C  0.00561575  0.14554082  0.00757235    -0.03100
C208        C  0.02171837  0.16808271  0.44766788    -0.17600
H209        H  0.05020600  0.25712071  0.41304673     0.20400
H210        H  0.96021792  0.25255170  0.08655360     0.18800
H211        H  0.96305942  0.35128715  0.07362914     0.18700
H212        H  0.04206127  0.15713337  0.41626453     0.14600
O213        O  0.06972980  0.99955820  0.96768786    -0.72700
O214        O  0.93262713  0.00979557  0.96365722    -0.73600
O215        O  0.00650808  0.07347744  0.96600920    -0.62300
O216        O  0.99633037  0.93599444  0.96552355    -0.70700
O217        O  0.00700523  0.93429772  0.53575882    -0.70200
O218        O  0.99809186  0.07110152  0.52644845    -0.61500
O219        O  0.93394011  0.99836905  0.53257998    -0.74000
O220        O  0.07120627  0.00777511  0.52927887    -0.72800
Cu221      Cu  0.00130108  0.00474981  0.96273044     1.04600
Cu222      Cu  0.00269153  0.00302708  0.53391013     1.04300
C223        C  0.09228870  0.00300072  0.48805890     0.93500
C224        C  0.91162642  0.99945615  0.49167822     0.92700
C225        C  0.00071425  0.09080929  0.48426070     0.84800
C226        C  0.00240160  0.91024355  0.49632702     0.91100
O227        O  0.06891088  0.00494108  0.71460721    -0.72700
O228        O  0.93158100  0.99944998  0.70935392    -0.73600
O229        O  0.99774473  0.07092018  0.71098324    -0.62300
O230        O  0.00304912  0.93331044  0.71320268    -0.70700
O231        O  0.99295180  0.93465016  0.79495324    -0.70200
O232        O  0.00352648  0.07181696  0.79332755    -0.61500
O233        O  0.92922888  0.00851284  0.79126821    -0.74000
O234        O  0.06667968  0.99797181  0.79676697    -0.72800
Cu235      Cu  0.00039332  0.00212743  0.70907476     1.04600
Cu236      Cu  0.99797815  0.00332054  0.79703063     1.04300
C237        C  0.08934956  0.00096585  0.75640002     0.93500
C238        C  0.90874845  0.00418203  0.74944707     0.92700
C239        C  0.00111521  0.09294630  0.75192947     0.84800
C240        C  0.99782844  0.91232976  0.75440980     0.91100
O241        O  0.03655655  0.43253611  0.49835850    -0.72700
O242        O  0.03134134  0.57021815  0.50955186    -0.73600
O243        O  0.03368684  0.49712987  0.57836856    -0.62300
O244        O  0.03885264  0.50798406  0.92915732    -0.70700
O245        O  0.96298952  0.50135305  0.92946726    -0.70200
O246        O  0.95758762  0.49819558  0.57802018    -0.61500
O247        O  0.95543186  0.56771513  0.50378295    -0.74000
O248        O  0.96054804  0.43022818  0.50216754    -0.72800
Cu249      Cu  0.03671702  0.50139697  0.50417008     1.04600
Cu250      Cu  0.95537326  0.49883769  0.50315671     1.04300
C251        C  0.99913773  0.40984303  0.49885993     0.93500
C252        C  0.99262757  0.59058672  0.50736883     0.92700
C253        C  0.99566104  0.49750296  0.60167380     0.84800
C254        C  0.00072652  0.50474736  0.90594398     0.91100
O255        O  0.95847625  0.50118553  0.68006838    -0.72700
O256        O  0.96170020  0.50193129  0.82889479    -0.73600
O257        O  0.95999275  0.57083048  0.75528297    -0.62300
O258        O  0.96058825  0.43305703  0.75467866    -0.70700
O259        O  0.03663167  0.43369640  0.75939094    -0.70200
O260        O  0.03581502  0.57082317  0.74827700    -0.61500
O261        O  0.03769193  0.50670666  0.82774756    -0.74000
O262        O  0.03447417  0.49728098  0.67923030    -0.72800
Cu263      Cu  0.95747086  0.50178230  0.75474047     1.04600
Cu264      Cu  0.03882405  0.50217377  0.75352961     1.04300
C265        C  0.99611840  0.49837068  0.65618580     0.93500
C266        C  0.00006596  0.50458854  0.85168502     0.92700
C267        C  0.99789632  0.59244055  0.75141943     0.84800
C268        C  0.99872524  0.41187009  0.75820232     0.91100
O269        O  0.56877429  0.03677065  0.99508056    -0.72700
O270        O  0.43106124  0.03576211  0.00430965    -0.73600
O271        O  0.50174943  0.03393977  0.57488464    -0.62300
O272        O  0.49602879  0.03443660  0.92488995    -0.70700
O273        O  0.50013837  0.95846026  0.92622536    -0.70200
O274        O  0.49768241  0.95794212  0.57265171    -0.61500
O275        O  0.43166470  0.95968896  0.00084842    -0.74000
O276        O  0.56937872  0.96087430  0.00095112    -0.72800
Cu277      Cu  0.49989533  0.03882894  0.99944981     1.04600
Cu278      Cu  0.50059682  0.95746592  0.00076484     1.04300
C279        C  0.59071853  0.99900128  0.99781148     0.93500
C280        C  0.40979490  0.99750940  0.00351291     0.92700
C281        C  0.49924203  0.99541244  0.59718666     0.84800
C282        C  0.49782078  0.99597942  0.90207658     0.91100
O283        O  0.50063373  0.95680923  0.82436160    -0.72700
O284        O  0.49702123  0.95624276  0.67462308    -0.73600
O285        O  0.56802873  0.95730992  0.74694682    -0.62300
O286        O  0.43003848  0.95498152  0.75175219    -0.70700
O287        O  0.42941714  0.03094117  0.74639924    -0.70200
O288        O  0.56654615  0.03324707  0.75258232    -0.61500
O289        O  0.50000268  0.03230399  0.67543684    -0.74000
O290        O  0.49551242  0.03273280  0.82377752    -0.72800
Cu291      Cu  0.49898682  0.95353013  0.74944146     1.04600
Cu292      Cu  0.49782700  0.03487623  0.74954869     1.04300
C293        C  0.49783786  0.99503447  0.84755345     0.93500
C294        C  0.49859854  0.99448373  0.65159013     0.92700
C295        C  0.58890687  0.99573500  0.74973469     0.84800
C296        C  0.40816186  0.99276969  0.74892536     0.91100
C297        C  0.20708834  0.01424629  0.73912138     0.30000
C298        C  0.24682664  0.03285281  0.71828883    -0.36300
C299        C  0.28820838  0.01339545  0.73398859     0.16000
C300        C  0.29048920  0.97747743  0.76722530     0.21800
C301        C  0.25068923  0.95940466  0.78885089    -0.34400
C302        C  0.20922105  0.97949913  0.77382234     0.15900
O303        O  0.16474556  0.02648702  0.72861496    -0.23200
C304        C  0.13943843  0.99991505  0.75766131     0.05700
C305        C  0.16513467  0.97023076  0.78693611    -0.31300
O306        O  0.33300910  0.96432073  0.77601894    -0.23100
C307        C  0.35802562  0.99277312  0.74865679    -0.03100
C308        C  0.33204976  0.02405950  0.72191912    -0.17600
H309        H  0.24555993  0.06052533  0.69162567     0.20400
H310        H  0.25196254  0.93172118  0.81554563     0.18800
H311        H  0.15296007  0.94456745  0.81271393     0.18700
H312        H  0.34387428  0.05079287  0.69728123     0.14600
C313        C  0.79034158  0.01619367  0.76685271     0.30000
C314        C  0.75013606  0.03169016  0.78983472    -0.36300
C315        C  0.70885621  0.01550631  0.76946422     0.16000
C316        C  0.70713715  0.98531500  0.72989390     0.21800
C317        C  0.74734624  0.97058239  0.70620323    -0.34400
C318        C  0.78863846  0.98754334  0.72595959     0.15900
O319        O  0.83269198  0.02600789  0.78060984    -0.26400
C320        C  0.85842726  0.00403990  0.74752225     0.05700
C321        C  0.83290282  0.97987495  0.71240203    -0.31300
O322        O  0.66477117  0.97346625  0.71806907    -0.23100
C323        C  0.63916127  0.99710836  0.74994254    -0.03100
C324        C  0.66467087  0.02404358  0.78248055    -0.17600
H325        H  0.75097249  0.05457574  0.82154102     0.20400
H326        H  0.74651788  0.94741799  0.67476224     0.18800
H327        H  0.84527840  0.95862473  0.68227596     0.18700
H328        H  0.65233942  0.04619674  0.81187027     0.14600
C329        C  0.98492392  0.71026319  0.77217102     0.30000
C330        C  0.96989555  0.74992764  0.79683594    -0.36300
C331        C  0.98425767  0.79175152  0.77650226     0.16000
C332        C  0.01080132  0.79439255  0.73423641     0.21800
C333        C  0.02658293  0.75474257  0.71017659    -0.34400
C334        C  0.01297003  0.71293061  0.73106101     0.15900
O335        O  0.97520833  0.66758689  0.78437048    -0.26400
C336        C  0.99801188  0.64269319  0.75116398     0.05700
C337        C  0.02239176  0.66898710  0.71734530    -0.31300
O338        O  0.01881414  0.83703008  0.72063346    -0.23100
C339        C  0.99774663  0.86202006  0.75507305    -0.03100
C340        C  0.97595602  0.83572868  0.79099518    -0.17600
H341        H  0.94839618  0.74828776  0.82944182     0.20400
H342        H  0.04792372  0.75638602  0.67741601     0.18800
H343        H  0.04335835  0.65733950  0.68672300     0.18700
H344        H  0.95620897  0.84737986  0.82255506     0.14600
C345        C  0.01576115  0.21040821  0.77280974     0.30000
C346        C  0.03313382  0.24995280  0.79602344    -0.36300
C347        C  0.01649427  0.29178307  0.77779409     0.16000
C348        C  0.98416955  0.29436817  0.74028054     0.21800
C349        C  0.96749832  0.25494256  0.71652641    -0.34400
C350        C  0.98496091  0.21325989  0.73386556     0.15900
O351        O  0.02576919  0.16767952  0.78434703    -0.26400
C352        C  0.00175432  0.14308843  0.75167054     0.05700
C353        C  0.97606049  0.16955751  0.71906087    -0.31300
O354        O  0.97284103  0.33684167  0.72946370    -0.23100
C355        C  0.99891446  0.36182775  0.75966748    -0.03100
C356        C  0.02695795  0.33580138  0.79052270    -0.17600
H357        H  0.05788909  0.24822187  0.82599122     0.20400
H358        H  0.94286261  0.25668111  0.68648487     0.18800
H359        H  0.95308159  0.15815551  0.68991815     0.18700
H360        H  0.05128202  0.34762994  0.81816356     0.14600
C361        C  0.29377960  0.01714596  0.50803177     0.30000
C362        C  0.25395535  0.03463502  0.52994451    -0.36300
C363        C  0.21245755  0.02069327  0.50837191     0.16000
C364        C  0.20779413  0.98819407  0.98777276     0.21800
C365        C  0.24687782  0.97642006  0.96046972    -0.34400
C366        C  0.28904861  0.98572829  0.98344606     0.15900
O367        O  0.33615083  0.02529695  0.52265930    -0.26400
C368        C  0.35963958  0.99687591  0.00503988     0.05700
C369        C  0.33258442  0.97913560  0.96706849    -0.31300
O370        O  0.16499971  0.98401241  0.97264539    -0.23100
C371        C  0.14069151  0.99976955  0.01071293    -0.03100
C372        C  0.16848344  0.02924457  0.52204796    -0.17600
H373        H  0.25522398  0.05692018  0.56219760     0.20400
H374        H  0.24457504  0.96160566  0.92363398     0.18800
H375        H  0.34350607  0.96440536  0.93209127     0.18700
H376        H  0.15662835  0.04954045  0.55321721     0.14600
C377        C  0.79445308  0.98653667  0.51586622     0.30000
C378        C  0.75553391  0.97179646  0.54184437    -0.36300
C379        C  0.71310032  0.98365993  0.52085804     0.16000
C380        C  0.70845078  0.02043347  0.98640331     0.21800
C381        C  0.74799986  0.04358875  0.97072688    -0.34400
C382        C  0.78989421  0.02464385  0.98604091     0.15900
O383        O  0.83751361  0.97983499  0.52904421    -0.26400
C384        C  0.86007616  0.00620961  0.00282737     0.05700
C385        C  0.83381615  0.03775882  0.97668605    -0.31300
O386        O  0.66568272  0.03224357  0.97678636    -0.23100
C387        C  0.64102936  0.99942164  0.99818991    -0.03100
C388        C  0.66952945  0.97487538  0.53619263    -0.17600
H389        H  0.75815831  0.95255806  0.57607343     0.20400
H390        H  0.74624052  0.07410532  0.94801788     0.18800
H391        H  0.84547052  0.06643578  0.95461959     0.18700
H392        H  0.65868628  0.95587877  0.56861622     0.14600
C393        C  0.98702815  0.79688842  0.98440829     0.30000
C394        C  0.97277712  0.75741475  0.95878414    -0.36300
C395        C  0.98364597  0.71552070  0.98131832     0.16000
C396        C  0.00628308  0.70879703  0.52609368     0.21800
C397        C  0.02435925  0.74886049  0.54758875    -0.34400
C398        C  0.01094762  0.79031646  0.52554467     0.15900
O399        O  0.98067492  0.83958648  0.97008032    -0.26400
C400        C  0.00046809  0.85999777  0.49991741     0.05700
C401        C  0.02259241  0.83448383  0.53644742    -0.31300
O402        O  0.01606324  0.66628016  0.53900594    -0.23100
C403        C  0.99094522  0.64087263  0.50806685    -0.03100
C404        C  0.97504208  0.67161964  0.96665373    -0.17600
H405        H  0.95449226  0.75926368  0.92378604     0.20400
H406        H  0.04788117  0.74774218  0.57879893     0.18800
H407        H  0.04467292  0.84668609  0.56607092     0.18700
H408        H  0.95729801  0.66002651  0.93353424     0.14600
C409        C  0.02235544  0.29686557  0.99006433     0.30000
C410        C  0.03694451  0.25675623  0.96599541    -0.36300
C411        C  0.02231172  0.21536223  0.98709144     0.16000
C412        C  0.98680283  0.20793029  0.50562972     0.21800
C413        C  0.97131638  0.24656542  0.53144675    -0.34400
C414        C  0.98539057  0.28890471  0.51271650     0.15900
O415        O  0.03043087  0.33927349  0.97558386    -0.26400
C416        C  0.00015988  0.35973294  0.49627183     0.05700
C417        C  0.97575400  0.33203217  0.52851988    -0.31300
O418        O  0.97857472  0.16511025  0.51777122    -0.23100
C419        C  0.99959137  0.14097881  0.48272906    -0.03100
C420        C  0.02829071  0.17125402  0.97181773    -0.17600
H421        H  0.05727022  0.25777210  0.93247203     0.20400
H422        H  0.94985261  0.24378035  0.56399753     0.18800
H423        H  0.95436635  0.34229456  0.55936982     0.18700
H424        H  0.04661604  0.15914289  0.93947934     0.14600
loop_ 
_geom_bond_atom_site_label_1 
_geom_bond_atom_site_label_2 
_geom_bond_distance 
_geom_bond_site_symmetry_2 
_ccdc_geom_bond_type 
O1           Cu9   2.012       .  S
O1          C223   1.277   1_565  A
O2           Cu9   2.010   1_645  S
O2          C224   1.278   1_545  A
O3           Cu9   2.019   1_545  S
O3          C225   1.278       .  A
O4           Cu9   2.021   1_655  S
O4          C226   1.279   1_655  A
O5          Cu10   2.004   1_465  S
O5           C14   1.277   1_455  A
O6          Cu10   2.014       .  S
O6           C13   1.277   1_655  A
O7          Cu10   2.008       .  S
O7           C12   1.276       .  A
O8          Cu10   2.006   1_455  S
O8           C11   1.277       .  A
Cu9        Cu222   2.370   1_565  S
Cu10       Cu221   2.370   1_654  S
C11         O213   1.277   1_544  A
C11         C371   1.465   1_545  S
C12         O214   1.277   1_554  A
C12         C384   1.463       .  S
C13         O215   1.278   1_554  A
C13         C207   1.469       .  S
C14         O216   1.278   1_554  A
C14         C188   1.466       .  S
O15         Cu23   2.008       .  S
O15          C25   1.277       .  A
O16         Cu23   2.005   1_655  S
O16          C26   1.277       .  A
O17         Cu23   2.007       .  S
O17          C27   1.278       .  A
O18         Cu23   2.008   1_565  S
O18          C28   1.277       .  A
O19         Cu24   2.015   1_565  S
O19          C28   1.278       .  A
O20         Cu24   2.010       .  S
O20          C27   1.277       .  A
O21         Cu24   2.012   1_655  S
O21          C26   1.278       .  A
O22         Cu24   2.013       .  S
O22          C25   1.278       .  A
Cu23        Cu24   2.372       .  S
C25          C92   1.467       .  S
C26         C108   1.466       .  S
C27         C140   1.467       .  S
C28         C127   1.467       .  S
O29         Cu37   2.012       .  S
O29          C39   1.277       .  A
O30         Cu37   2.007       .  S
O30          C40   1.276   1_455  A
O31         Cu37   2.008       .  S
O31          C41   1.278       .  A
O32        Cu249   2.000       .  S
O32          C42   1.276   1_455  A
O33        Cu250   2.009       .  S
O33          C42   1.278       .  A
O34         Cu38   2.000       .  S
O34          C41   1.277   1_655  A
O35         Cu38   2.011       .  S
O35          C40   1.277       .  A
O36         Cu38   2.011       .  S
O36          C39   1.278   1_655  A
Cu37        O244   2.005   1_554  S
Cu37        Cu38   2.376   1_455  S
Cu38        O245   1.997   1_554  S
C39         C204   1.465       .  S
C40         C191   1.461       .  S
C41          C53   1.464       .  S
C42          C54   1.463       .  S
O43         Cu51   2.002       .  S
O43          C53   1.277   1_655  A
O44         Cu51   2.003       .  S
O44          C54   1.277       .  A
O45         Cu51   2.011       .  S
O45          C55   1.278   1_655  A
O46         Cu51   2.011       .  S
O46          C56   1.277       .  A
O47         Cu52   2.009       .  S
O47          C56   1.276   1_455  A
O48         Cu52   2.005       .  S
O48          C55   1.276       .  A
O49         Cu52   2.005       .  S
O49          C54   1.278   1_455  A
O50         Cu52   2.010       .  S
O50          C53   1.278       .  A
Cu51        Cu52   2.376   1_655  S
C55         C124   1.463       .  S
C56         C143   1.461       .  S
O57         Cu65   2.010       .  S
O57          C67   1.277   1_545  A
O58         Cu65   2.010       .  S
O58          C68   1.277   1_545  A
O59        Cu277   2.009   1_554  S
O59          C69   1.278   1_545  A
O60         Cu65   2.004       .  S
O60          C70   1.277       .  A
O61         Cu66   1.995       .  S
O61          C70   1.276   1_565  A
O62        Cu278   2.001       .  S
O62          C69   1.277       .  A
O63         Cu66   2.012       .  S
O63          C68   1.277       .  A
O64         Cu66   2.012       .  S
O64          C67   1.277       .  A
Cu65        O271   2.006       .  S
Cu65        Cu66   2.376   1_545  S
Cu66        O274   2.005       .  S
C67         C175   1.464       .  S
C68         C156   1.464       .  S
C69          C82   1.464   1_565  S
C70          C81   1.460       .  S
O71         Cu79   1.997       .  S
O71          C81   1.277   1_565  A
O72         Cu79   2.002       .  S
O72          C82   1.277   1_565  A
O73         Cu79   2.008       .  S
O73          C83   1.276   1_565  A
O74         Cu79   2.008       .  S
O74          C84   1.277   1_565  A
O75         Cu80   2.012       .  S
O75          C84   1.277       .  A
O76         Cu80   2.011       .  S
O76          C83   1.277       .  A
O77         Cu80   2.007       .  S
O77          C82   1.277       .  A
O78         Cu80   2.003       .  S
O78          C81   1.277       .  A
Cu79        Cu80   2.376   1_565  S
C83         C111   1.461       .  S
C84          C95   1.463       .  S
C85          C90   1.381   1_565  A
C85          C86   1.402       .  A
C85          O91   1.317       .  A
C86          C87   1.401       .  A
C86          H97   1.082       .  S
C87          C96   1.361       .  A
C87          C88   1.381   1_565  A
C88          C89   1.405       .  A
C88          O94   1.319       .  A
C89          C90   1.404       .  A
C89          H98   1.082       .  S
C90          C93   1.364       .  A
O91          C92   1.330   1_565  A
C92          C93   1.392       .  A
C93          H99   1.082       .  S
O94          C95   1.330       .  A
C95          C96   1.389   1_545  A
C96         H100   1.082       .  S
C101        C106   1.381   1_565  A
C101        C102   1.402       .  A
C101        O107   1.318       .  A
C102        C103   1.402       .  A
C102        H113   1.083       .  S
C103        C112   1.361       .  A
C103        C104   1.382   1_565  A
C104        C105   1.402       .  A
C104        O110   1.318       .  A
C105        C106   1.402       .  A
C105        H114   1.083       .  S
C106        C109   1.361       .  A
O107        C108   1.330   1_565  A
C108        C109   1.391       .  A
C109        H115   1.083       .  S
O110        C111   1.329       .  A
C111        C112   1.389   1_545  A
C112        H116   1.083       .  S
C117        C122   1.381   1_455  A
C117        C118   1.404       .  A
C117        O123   1.319       .  A
C118        C119   1.403       .  A
C118        H129   1.083       .  S
C119        C128   1.363       .  A
C119        C120   1.381   1_455  A
C120        C121   1.402       .  A
C120        O126   1.318       .  A
C121        C122   1.401       .  A
C121        H130   1.083       .  S
C122        C125   1.361       .  A
O123        C124   1.330       .  A
C124        C125   1.389   1_455  A
C125        H131   1.083       .  S
O126        C127   1.330   1_655  A
C127        C128   1.391       .  A
C128        H132   1.082       .  S
C133        C138   1.381   1_655  A
C133        C134   1.404       .  A
C133        O139   1.319       .  A
C134        C135   1.403       .  A
C134        H145   1.083       .  S
C135        C144   1.362       .  A
C135        C136   1.382   1_655  A
C136        C137   1.401       .  A
C136        O142   1.318       .  A
C137        C138   1.401       .  A
C137        H146   1.083       .  S
C138        C141   1.359       .  A
O139        C140   1.331   1_655  A
C140        C141   1.390       .  A
C141        H147   1.083       .  S
O142        C143   1.328   1_455  A
C143        C144   1.390       .  A
C144        H148   1.082       .  S
C149        C150   1.405       .  A
C149        C366   1.381   1_544  A
C149        O155   1.320       .  A
C150        C151   1.404       .  A
C150        H161   1.082       .  S
C151        C160   1.362       .  A
C151        C364   1.381   1_544  A
C152        C153   1.404       .  A
C152        C363   1.381   1_565  A
C152        O158   1.319       .  A
C153        C154   1.404       .  A
C153        H162   1.083       .  S
C154        C157   1.363       .  A
C154        C361   1.382   1_565  A
O155        C368   1.331   1_545  A
C156        C157   1.391       .  A
C156        O367   1.329   1_565  A
C157        H163   1.083       .  S
O158        C159   1.331   1_565  A
C159        C223   1.466       .  S
C159        C372   1.390       .  A
C160        C371   1.391   1_545  A
C160        H164   1.082       .  S
C165        C166   1.402       .  A
C165        C382   1.381   1_564  A
C165        O171   1.318       .  A
C166        C167   1.402       .  A
C166        H177   1.083       .  S
C167        C176   1.360       .  A
C167        C380   1.381   1_564  A
C168        C169   1.403       .  A
C168        C379   1.381   1_545  A
C168        O174   1.318       .  A
C169        C170   1.402       .  A
C169        H178   1.083       .  S
C170        C173   1.361       .  A
C170        C377   1.381   1_545  A
O171        C384   1.329   1_565  A
C172        C224   1.467       .  S
C172        C173   1.390   1_565  A
C172        O383   1.331       .  A
C173        H179   1.083       .  S
O174        C175   1.330   1_545  A
C175        C388   1.389       .  A
C176        C387   1.390   1_554  A
C176        H180   1.083       .  S
C181        C182   1.404       .  A
C181        C398   1.381   1_655  A
C181        O187   1.320       .  A
C182        C183   1.403       .  A
C182        H193   1.084       .  S
C183        C192   1.362       .  A
C183        C396   1.381   1_655  A
C184        C185   1.402       .  A
C184        C395   1.381   1_454  A
C184        O190   1.317       .  A
C185        C186   1.401       .  A
C185        H194   1.082       .  S
C186        C189   1.360       .  A
C186        C393   1.381   1_454  A
O187        C400   1.331   1_655  A
C188        C189   1.391   1_655  A
C188        O399   1.330   1_554  A
C189        H195   1.082       .  S
O190        C191   1.329   1_455  A
C191        C404   1.390   1_554  A
C192        C403   1.390       .  A
C192        H196   1.083       .  S
C197        C198   1.407       .  A
C197        C414   1.381   1_455  A
C197        O203   1.321       .  A
C198        C199   1.406       .  A
C198        H209   1.081       .  S
C199        C208   1.366       .  A
C199        C412   1.381   1_455  A
C200        C201   1.404       .  A
C200        C411   1.381   1_654  A
C200        O206   1.320       .  A
C201        C202   1.403       .  A
C201        H210   1.082       .  S
C202        C205   1.361       .  A
C202        C409   1.381   1_654  A
O203        C416   1.333       .  A
C204        C205   1.390   1_455  A
C204        O415   1.330   1_554  A
C205        H211   1.082       .  S
O206        C207   1.331   1_655  A
C207        C420   1.391   1_554  A
C208        C419   1.393   1_455  A
C208        H212   1.082       .  S
O213       Cu221   2.007   1_565  S
O214       Cu221   2.010   1_655  S
O215       Cu221   2.013       .  S
O216       Cu221   2.013   1_665  S
O217       Cu222   2.010   1_565  S
O217        C226   1.277       .  A
O218       Cu222   2.002   1_655  S
O218        C225   1.276   1_655  A
O219       Cu222   2.011   1_665  S
O219        C224   1.277       .  A
O220       Cu222   2.009       .  S
O220        C223   1.278       .  A
C225        C419   1.465   1_455  S
C226        C400   1.471       .  S
O227       Cu235   2.006       .  S
O227        C237   1.277       .  A
O228       Cu235   2.010   1_665  S
O228        C238   1.277   1_565  A
O229       Cu235   2.010   1_655  S
O229        C239   1.278   1_655  A
O230       Cu235   2.013   1_565  S
O230        C240   1.278   1_455  A
O231       Cu236   2.010   1_565  S
O231        C240   1.278       .  A
O232       Cu236   2.008   1_455  S
O232        C239   1.276       .  A
O233       Cu236   2.018       .  S
O233        C238   1.278       .  A
O234       Cu236   2.011   1_465  S
O234        C237   1.277   1_565  A
Cu235      Cu236   2.368   1_455  S
C237        C304   1.462   1_545  S
C238        C320   1.469       .  S
C239        C352   1.463       .  S
C240        C339   1.468       .  S
O241       Cu249   2.015       .  S
O241        C251   1.277   1_455  A
O242       Cu249   2.019       .  S
O242        C252   1.278   1_455  A
O243       Cu249   2.003       .  S
O243        C253   1.277   1_455  A
O244        C254   1.277       .  A
O245        C254   1.276   1_655  A
O246       Cu250   2.015       .  S
O246        C253   1.279       .  A
O247       Cu250   2.010       .  S
O247        C252   1.277       .  A
O248       Cu250   2.008       .  S
O248        C251   1.277       .  A
Cu249      Cu250   2.375   1_455  S
C251        C416   1.464   1_655  S
C252        C403   1.468       .  S
C253        C265   1.467       .  S
C254        C266   1.460       .  S
O255       Cu263   2.010       .  S
O255        C265   1.277       .  A
O256       Cu263   1.999       .  S
O256        C266   1.277   1_655  A
O257       Cu263   2.016       .  S
O257        C267   1.278       .  A
O258       Cu263   2.008       .  S
O258        C268   1.277       .  A
O259       Cu264   2.006       .  S
O259        C268   1.276   1_455  A
O260       Cu264   2.011       .  S
O260        C267   1.277   1_455  A
O261       Cu264   2.001       .  S
O261        C266   1.277       .  A
O262       Cu264   2.007       .  S
O262        C265   1.278   1_455  A
Cu263      Cu264   2.374   1_655  S
C267        C336   1.467       .  S
C268        C355   1.461       .  S
O269       Cu277   2.015       .  S
O269        C279   1.277   1_545  A
O270       Cu277   2.015   1_554  S
O270        C280   1.277   1_545  A
O271        C281   1.278   1_545  A
O272       Cu277   2.013       .  S
O272        C282   1.279   1_545  A
O273       Cu278   2.006   1_556  S
O273        C282   1.276       .  A
O274        C281   1.276       .  A
O275       Cu278   2.013       .  S
O275        C280   1.277       .  A
O276       Cu278   2.010       .  S
O276        C279   1.278   1_554  A
Cu277      Cu278   2.375   1_546  S
C279        C387   1.468       .  S
C280        C368   1.465       .  S
C281        C294   1.464       .  S
C282        C293   1.467       .  S
O283       Cu291   2.018       .  S
O283        C293   1.280       .  A
O284       Cu291   2.016       .  S
O284        C294   1.279       .  A
O285       Cu291   2.019       .  S
O285        C295   1.278       .  A
O286       Cu291   2.014       .  S
O286        C296   1.277       .  A
O287       Cu292   2.001       .  S
O287        C296   1.277   1_545  A
O288       Cu292   2.007       .  S
O288        C295   1.277   1_545  A
O289       Cu292   1.997       .  S
O289        C294   1.276   1_545  A
O290       Cu292   2.000       .  S
O290        C293   1.276   1_545  A
Cu291      Cu292   2.374   1_565  S
C295        C323   1.467       .  S
C296        C307   1.463       .  S
C297        C302   1.382   1_545  A
C297        C298   1.400       .  A
C297        O303   1.316       .  A
C298        C299   1.399       .  A
C298        H309   1.082       .  S
C299        C308   1.357       .  A
C299        C300   1.381   1_545  A
C300        C301   1.404       .  A
C300        O306   1.320       .  A
C301        C302   1.404       .  A
C301        H310   1.083       .  S
C302        C305   1.363       .  A
O303        C304   1.328   1_545  A
C304        C305   1.390       .  A
C305        H311   1.083       .  S
O306        C307   1.331       .  A
C307        C308   1.388   1_565  A
C308        H312   1.082       .  S
C313        C318   1.381   1_545  A
C313        C314   1.403       .  A
C313        O319   1.320       .  A
C314        C315   1.403       .  A
C314        H325   1.082       .  S
C315        C324   1.360       .  A
C315        C316   1.381   1_545  A
C316        C317   1.405       .  A
C316        O322   1.321       .  A
C317        C318   1.404       .  A
C317        H326   1.082       .  S
C318        C321   1.362       .  A
O319        C320   1.331       .  A
C320        C321   1.391   1_545  A
C321        H327   1.083       .  S
O322        C323   1.331       .  A
C323        C324   1.389   1_565  A
C324        H328   1.083       .  S
C329        C334   1.381   1_655  A
C329        C330   1.404       .  A
C329        O335   1.320       .  A
C330        C331   1.403       .  A
C330        H341   1.082       .  S
C331        C340   1.362       .  A
C331        C332   1.381   1_655  A
C332        C333   1.403       .  A
C332        O338   1.319       .  A
C333        C334   1.403       .  A
C333        H342   1.082       .  S
C334        C337   1.362       .  A
O335        C336   1.331       .  A
C336        C337   1.390   1_655  A
C337        H343   1.082       .  S
O338        C339   1.330   1_455  A
C339        C340   1.391       .  A
C340        H344   1.082       .  S
C345        C350   1.381   1_455  A
C345        C346   1.404       .  A
C345        O351   1.319       .  A
C346        C347   1.403       .  A
C346        H357   1.082       .  S
C347        C356   1.363       .  A
C347        C348   1.381   1_455  A
C348        C349   1.401       .  A
C348        O354   1.316       .  A
C349        C350   1.400       .  A
C349        H358   1.081       .  S
C350        C353   1.360       .  A
O351        C352   1.331       .  A
C352        C353   1.389   1_455  A
C353        H359   1.081       .  S
O354        C355   1.328       .  A
C355        C356   1.391   1_655  A
C356        H360   1.082       .  S
C361        C362   1.401       .  A
C361        O367   1.317       .  A
C362        C363   1.401       .  A
C362        H373   1.084       .  S
C363        C372   1.359       .  A
C364        C365   1.402       .  A
C364        O370   1.317       .  A
C365        C366   1.401       .  A
C365        H374   1.082       .  S
C366        C369   1.360       .  A
C368        C369   1.388   1_554  A
C369        H375   1.083       .  S
O370        C371   1.329   1_556  A
C372        H376   1.083       .  S
C377        C378   1.404       .  A
C377        O383   1.319       .  A
C378        C379   1.403       .  A
C378        H389   1.082       .  S
C379        C388   1.363       .  A
C380        C381   1.404       .  A
C380        O386   1.320       .  A
C381        C382   1.403       .  A
C381        H390   1.083       .  S
C382        C385   1.362       .  A
C384        C385   1.389   1_554  A
C385        H391   1.083       .  S
O386        C387   1.331   1_545  A
C388        H392   1.083       .  S
C393        C394   1.403       .  A
C393        O399   1.318       .  A
C394        C395   1.402       .  A
C394        H405   1.082       .  S
C395        C404   1.362       .  A
C396        C397   1.405       .  A
C396        O402   1.321       .  A
C397        C398   1.404       .  A
C397        H406   1.083       .  S
C398        C401   1.364       .  A
C400        C401   1.392       .  A
C401        H407   1.082       .  S
O402        C403   1.331   1_455  A
C404        H408   1.082       .  S
C409        C410   1.403       .  A
C409        O415   1.320       .  A
C410        C411   1.403       .  A
C410        H421   1.082       .  S
C411        C420   1.362       .  A
C412        C413   1.399       .  A
C412        O418   1.315       .  A
C413        C414   1.398       .  A
C413        H422   1.082       .  S
C414        C417   1.357       .  A
C416        C417   1.386   1_455  A
C417        H423   1.082       .  S
O418        C419   1.328       .  A
C420        H424   1.082       .  S
