geometry optimzed in LAMMPS
_audit_creation_date              2020-11-30 
_audit_creation_method            'lammps2cif' 
_symmetry_space_group_name_H-M    'P1' 
_symmetry_Int_Tables_number       1 
_symmetry_cell_setting            triclinic 
loop_ 
_symmetry_equiv_pos_as_xyz 
  x,y,z 
_cell_length_a                    39.12192515 
_cell_length_b                    38.873257007853915 
_cell_length_c                    36.419653992759784 
_cell_angle_alpha                 89.81031556382476 
_cell_angle_beta                  90.04229455487571 
_cell_angle_gamma                 90.22939386950138 
loop_ 
_atom_site_label 
_atom_site_type_symbol 
_atom_site_fract_x 
_atom_site_fract_y 
_atom_site_fract_z 
_atom_site_charge 
O1          O  0.53699941  0.48396710  0.06699332    -0.78400
O2          O  0.51894949  0.53366594  0.41922857    -0.78400
O3          O  0.52347231  0.43107014  0.46946791    -0.78400
O4          O  0.55496307  0.55668284  0.03507509    -0.78400
O5          O  0.54102461  0.47642095  0.44190277    -0.78500
O6          O  0.51787554  0.54367443  0.07806152    -0.78400
O7          O  0.55583427  0.55095947  0.46013808    -0.78400
O8          O  0.52337274  0.43624232  0.04164662    -0.78400
C9          C  0.54173156  0.45261427  0.06374220     1.11300
C10         C  0.54757585  0.54709771  0.42694260     1.11200
C11         C  0.54440542  0.44526154  0.44824284     1.11300
C12         C  0.54698293  0.55542174  0.06868103     1.11200
O13         O  0.45322816  0.53235614  0.03816424    -0.78400
O14         O  0.47799117  0.47706191  0.41084558    -0.78500
O15         O  0.45332259  0.46302954  0.04260532    -0.78400
O16         O  0.48478427  0.57216928  0.45878508    -0.78400
O17         O  0.45476536  0.52488809  0.45858860    -0.78500
O18         O  0.47262996  0.48916694  0.09285664    -0.78400
O19         O  0.48518133  0.57798377  0.03269758    -0.78400
O20         O  0.45431331  0.45729353  0.46214787    -0.78500
Co21       Co  0.49477226  0.50553170  0.05030202     1.51500
Co22       Co  0.49740172  0.49835976  0.45209615     1.51700
Co23       Co  0.49079060  0.45378864  0.50362960     1.51600
Co24       Co  0.51972114  0.56141616  0.99697916     1.51500
O25         O  0.51245097  0.50871651  0.00131545    -1.40300
C26         C  0.45744203  0.56418574  0.04275523     1.11200
C27         C  0.45553896  0.45865709  0.42652141     1.11300
C28         C  0.45219425  0.46795322  0.07787625     1.11200
C29         C  0.45749911  0.55628204  0.45042260     1.11200
C30         C  0.57132901  0.92776588  0.09149528     0.44200
N31         N  0.55878091  0.96611253  0.05131008     0.03100
C32         C  0.41091715  0.06366118  0.04265317    -0.04800
H33         H  0.39194790  0.93274751  0.02925020     0.08600
C34         C  0.45977326  0.94045778  0.40938089    -0.05200
Co35       Co  0.49500099  0.00418397  0.07078305     0.74200
N36         N  0.43603607  0.96478107  0.04007265    -0.24300
Co37       Co  0.43784983  0.00142271  0.99803317     0.74100
C38         C  0.42785117  0.92391121  0.42112479     0.44300
N39         N  0.54245580  0.96579088  0.44027008     0.02700
N40         N  0.44085487  0.96414642  0.45891550     0.02800
N41         N  0.44833546  0.06466337  0.08999378    -0.45200
H42         H  0.52307206  0.93975407  0.12541205     0.08600
N43         N  0.45767279  0.96623032  0.06786038     0.03100
N44         N  0.43949979  0.03902450  0.45816878     0.02800
C45         C  0.42642300  0.07965316  0.42076932     0.44400
N46         N  0.56439104  0.96610689  0.46785497    -0.23800
C47         C  0.53774331  0.06730991  0.09634976    -0.04700
N48         N  0.58212685  0.94294812  0.06017351    -0.44900
N49         N  0.41539811  0.06180219  0.45035652    -0.45100
C50         C  0.57074535  0.08204556  0.08627443     0.44200
N51         N  0.45659597  0.04093537  0.06555119     0.03100
N52         N  0.56413945  0.04045522  0.46766963    -0.23800
N53         N  0.53339871  0.96730455  0.07510734    -0.24300
N54         N  0.54231108  0.04074552  0.44001764     0.02700
H55         H  0.61029407  0.06856476  0.47908037     0.08600
H56         H  0.47512805  0.07114478  0.38655430     0.08600
N57         N  0.43487484  0.03958658  0.03786926    -0.24400
N58         N  0.46575397  0.96501342  0.43447762    -0.24000
N59         N  0.55906608  0.04083401  0.04950781     0.03100
C60         C  0.42375891  0.92495096  0.08193098     0.44500
C61         C  0.58835053  0.94226419  0.46181559    -0.05200
N62         N  0.46525554  0.04004987  0.43471708    -0.24000
H63         H  0.47528645  0.93558798  0.38540514     0.08600
N64         N  0.45098062  0.94319201  0.09366742    -0.45200
H65         H  0.61024319  0.93770390  0.47925035     0.08600
C66         C  0.57905772  0.08020773  0.42684049     0.44300
C67         C  0.53901878  0.94392665  0.10155588    -0.04700
Co68       Co  0.56260432  0.00263509  0.00960523     0.73800
N69         N  0.55051936  0.94289084  0.41484419    -0.44900
C70         C  0.41993409  0.08040271  0.07722657     0.44600
N71         N  0.58272159  0.06413727  0.05737225    -0.44900
Co72       Co  0.50400270  0.00296577  0.43662853     0.74800
C73         C  0.45938970  0.06520732  0.41015595    -0.05200
C74         C  0.41364507  0.93917426  0.04635481    -0.04800
N75         N  0.53282828  0.04180152  0.07224955    -0.24300
N76         N  0.41766671  0.94013396  0.45189614    -0.45100
H77         H  0.38878353  0.06719600  0.02528283     0.08600
C78         C  0.58806686  0.06453083  0.46195620    -0.05200
Cl79       Cl  0.50025117  0.00246581  0.00369154    -0.48200
C80         C  0.57923733  0.92692057  0.42647528     0.44300
H81         H  0.52144263  0.07314452  0.11946004     0.08500
N82         N  0.55060661  0.06387300  0.41462570    -0.44900
C83         C  0.91937230  0.43377534  0.08299854     0.44200
N84         N  0.95994622  0.44630344  0.04565883     0.03100
C85         C  0.06299651  0.59168945  0.04801404    -0.04800
H86         H  0.93775662  0.61762894  0.02427274     0.08600
C87         C  0.94651099  0.54548998  0.40370549    -0.05200
Co88       Co  0.99843206  0.50899953  0.06938925     0.74200
N89         N  0.96483444  0.57062308  0.03641557    -0.24300
Co90       Co  0.00408737  0.56709484  0.99781772     0.74100
C91         C  0.93169728  0.57876437  0.41381895     0.44300
N92         N  0.96646846  0.46182580  0.43703205     0.02700
N93         N  0.96898267  0.56424797  0.45401698     0.02800
N94         N  0.05915829  0.55338593  0.09481018    -0.45200
H95         H  0.93020386  0.48217639  0.11779280     0.08600
N96         N  0.96280121  0.54839242  0.06379286     0.03100
N97         N  0.04293583  0.56218407  0.45819333     0.02800
C98         C  0.08605662  0.57178800  0.42350084     0.44400
N99         N  0.96452123  0.44001404  0.46484217    -0.23800
C100        C  0.05691475  0.46348570  0.09986645    -0.04700
N101        N  0.93618213  0.42293850  0.05285641    -0.44900
N102        N  0.06763909  0.58472717  0.45153828    -0.45100
C103        C  0.07223859  0.43066804  0.09000897     0.44200
N104        N  0.03709244  0.54617113  0.06824442     0.03100
N105        N  0.03855548  0.43782945  0.46879521    -0.23800
N106        N  0.96011375  0.47172172  0.06957739    -0.24300
N107        N  0.04059595  0.45954862  0.44102072     0.02700
H108        H  0.06357744  0.39012033  0.48111504     0.08600
H109        H  0.07609554  0.52284961  0.38976432     0.08600
N110        N  0.03875621  0.56832823  0.04081360    -0.24400
N111        N  0.96941699  0.53874245  0.43023671    -0.24000
N112        N  0.03427457  0.44378913  0.04987451     0.03100
C113        C  0.92386199  0.58551912  0.07551369     0.44500
C114        C  0.93955799  0.41715560  0.45785333    -0.05200
N115        N  0.04345881  0.53591227  0.43530201    -0.24000
H116        H  0.94191801  0.52960992  0.37988849     0.08600
N117        N  0.93901355  0.55660246  0.08798778    -0.45200
H118        H  0.93315799  0.39518562  0.47483183     0.08600
C119        C  0.07816683  0.42093103  0.42898359     0.44300
C120        C  0.93518465  0.46626361  0.09412054    -0.04700
Co121      Co  0.99867037  0.44163441  0.00695809     0.73800
N122        N  0.94436167  0.45472687  0.41052524    -0.44900
C123        C  0.07645017  0.58179734  0.08383892     0.44600
N124        N  0.05690855  0.41987561  0.05880137    -0.44900
Co125      Co  0.00497964  0.49898300  0.43522005     0.73900
C126        C  0.07005877  0.53956030  0.41252041    -0.05200
C127        C  0.94098042  0.59496970  0.04121533    -0.04800
N128        N  0.03380130  0.46946366  0.07352988    -0.24300
N129        N  0.94706521  0.58861927  0.44516442    -0.45100
H130        H  0.06919254  0.61365694  0.03095043     0.08600
C131        C  0.06135874  0.41265408  0.46384364    -0.05200
Cl132      Cl  0.00146371  0.50434417  0.00234097    -0.48200
C133        C  0.92618909  0.42703365  0.42177999     0.44300
H134        H  0.06149111  0.47959220  0.12353814     0.08500
N135        N  0.06366569  0.45022332  0.41643286    -0.44900
C136        C  0.27718278  0.28691845  0.21555655     0.47200
H137        H  0.27452933  0.28910072  0.18525923    -0.01800
C138        C  0.28316691  0.28199870  0.28645768     0.47200
H139        H  0.28611046  0.27982764  0.31670935    -0.01800
C140        C  0.30323366  0.31231362  0.23174752    -0.15500
C141        C  0.24391262  0.29461440  0.23641742    -0.15300
C142        C  0.28953987  0.25131255  0.22869119    -0.15700
C143        C  0.30618552  0.30974914  0.26919561    -0.15600
C144        C  0.24692203  0.29188188  0.27402086    -0.15200
C145        C  0.29264913  0.24882777  0.26628791    -0.15500
C146        C  0.71263628  0.28819895  0.21767622     0.47200
H147        H  0.70995931  0.28717830  0.18733177    -0.01800
C148        C  0.71846562  0.29074408  0.28856144     0.47200
H149        H  0.72113200  0.29178506  0.31890275    -0.01800
C150        C  0.68907836  0.31480499  0.23545847    -0.15500
C151        C  0.70322791  0.25423171  0.23690414    -0.15300
C152        C  0.74873202  0.29836727  0.23070027    -0.15700
C153        C  0.69225737  0.31631571  0.27297704    -0.15600
C154        C  0.70648543  0.25542710  0.27457363    -0.15200
C155        C  0.75164415  0.29970455  0.26833724    -0.15500
C156        C  0.29147368  0.71683818  0.21581709     0.47200
H157        H  0.29157620  0.72059077  0.18556332    -0.01800
C158        C  0.29097215  0.70807214  0.28642796     0.47200
H159        H  0.29065474  0.70411182  0.31665190    -0.01800
C160        C  0.31693048  0.68951543  0.22910697    -0.15500
C161        C  0.30135595  0.74923767  0.23732281    -0.15300
C162        C  0.25671758  0.70475608  0.23055753    -0.15700
C163        C  0.31637025  0.68453395  0.26649223    -0.15600
C164        C  0.30099488  0.74482496  0.27484258    -0.15200
C165        C  0.25658303  0.70017204  0.26800545    -0.15500
C166        C  0.72111791  0.72196853  0.21807117     0.47200
H167        H  0.72153176  0.72359440  0.18760012    -0.01800
C168        C  0.71922926  0.71774378  0.28932082     0.47200
H169        H  0.71824411  0.71620096  0.31962037    -0.01800
C170        C  0.69743156  0.69355486  0.23226228    -0.15500
C171        C  0.75595347  0.71308950  0.23548253    -0.15300
C172        C  0.70803032  0.75484275  0.23699044    -0.15700
C173        C  0.69630242  0.69130207  0.26958858    -0.15600
C174        C  0.75509856  0.71132740  0.27344133    -0.15200
C175        C  0.70765753  0.75292727  0.27476872    -0.15500
C176        C  0.14719384  0.60318008  0.15103491     0.14400
C177        C  0.14894283  0.63923634  0.14793309     0.01400
C178        C  0.12561201  0.65639425  0.12515248     0.16300
C179        C  0.10162853  0.63776437  0.10477173     0.25700
C180        C  0.10056362  0.60157612  0.10687433    -0.40600
C181        C  0.12304800  0.58449897  0.13081184     0.32800
C182        C  0.17624675  0.65868652  0.16695354     0.01400
F183        F  0.12674597  0.69117664  0.12178777    -0.12900
F184        F  0.12246256  0.54965997  0.13364371    -0.13400
C185        C  0.21056707  0.65184448  0.15880095     0.16300
C186        C  0.23670241  0.66857097  0.17781988     0.25800
C187        C  0.22903326  0.69232612  0.20573907    -0.40500
C188        C  0.19462524  0.70071371  0.21235427     0.32700
C189        C  0.16839734  0.68387809  0.19321171     0.14400
F190        F  0.21879199  0.62835254  0.13276467    -0.12900
F191        F  0.18643389  0.72443971  0.23812364    -0.13400
F192        F  0.26939936  0.65960583  0.17043923    -0.15700
F193        F  0.13535142  0.69115082  0.20132325    -0.14200
F194        F  0.16912117  0.58607736  0.17345164    -0.14300
F195        F  0.07914927  0.65528546  0.08342880    -0.15700
C196        C  0.16433974  0.59318233  0.36751617     0.14400
C197        C  0.15762306  0.62737372  0.35688631     0.01400
C198        C  0.12751845  0.64328823  0.36921658     0.16300
C199        C  0.10488494  0.62559240  0.39217845     0.25700
C200        C  0.11130191  0.59127895  0.40200712    -0.40600
C201        C  0.14098031  0.57508356  0.38930008     0.32800
C202        C  0.18197668  0.64647930  0.33317470     0.01400
F203        F  0.11948487  0.67564974  0.35812826    -0.12900
F204        F  0.14763279  0.54190986  0.39856508    -0.13400
C205        C  0.19403332  0.63183202  0.30040503     0.16300
C206        C  0.21829800  0.64912022  0.27914393     0.25800
C207        C  0.22937277  0.68232587  0.28902047    -0.40500
C208        C  0.21700802  0.69717985  0.32139339     0.32700
C209        C  0.19389013  0.67925177  0.34357494     0.14400
F210        F  0.18255548  0.60060653  0.28906007    -0.12900
F211        F  0.22787020  0.72888482  0.33187792    -0.13400
F212        F  0.23233851  0.63250361  0.25015885    -0.15700
F213        F  0.18400588  0.69348109  0.37584089    -0.14200
F214        F  0.19375401  0.57744673  0.35730808    -0.14300
F215        F  0.07588717  0.64148643  0.40339518    -0.15700
C216        C  0.16094784  0.31389373  0.31681915     0.14400
C217        C  0.17087060  0.33711685  0.34429841     0.01400
C218        C  0.20567042  0.34292132  0.35086501     0.16300
C219        C  0.23034546  0.32717301  0.32909986     0.25700
C220        C  0.22070277  0.30480031  0.30042439    -0.40600
C221        C  0.18569828  0.29729485  0.29552852     0.32800
C222        C  0.14531275  0.35673044  0.36532863     0.01400
F223        F  0.21574560  0.36527572  0.37737510    -0.12900
F224        F  0.17543221  0.27420059  0.26987805    -0.13400
C225        C  0.14095485  0.35056105  0.40297935     0.16300
C226        C  0.11928179  0.37135868  0.42378181     0.25800
C227        C  0.10153093  0.39887038  0.40720549    -0.40500
C228        C  0.10600205  0.40482606  0.36924398     0.32700
C229        C  0.12762024  0.38385799  0.34855154     0.14400
F230        F  0.15814408  0.32457290  0.41969014    -0.12900
F231        F  0.08951445  0.43093382  0.35195270    -0.13400
F232        F  0.11667018  0.36501150  0.46030940    -0.15700
F233        F  0.13213894  0.39067784  0.31227256    -0.14200
F234        F  0.12731642  0.30756466  0.31045908    -0.14300
F235        F  0.26349594  0.33560249  0.33509659    -0.15700
C236        C  0.11561368  0.38950600  0.17205977     0.14400
C237        C  0.14141175  0.37010121  0.15513079     0.01400
C238        C  0.14407448  0.37058309  0.11658523     0.16300
C239        C  0.12127534  0.38996096  0.09538426     0.25700
C240        C  0.09592266  0.40980491  0.11237523    -0.40600
C241        C  0.09324132  0.40937588  0.15090856     0.32800
C242        C  0.16610164  0.35012249  0.17759382     0.01400
F243        F  0.16941739  0.35305781  0.09950186    -0.12900
F244        F  0.06825907  0.42728923  0.16813901    -0.13400
C245        C  0.17123585  0.31483806  0.17105116     0.16300
C246        C  0.19623123  0.29666101  0.19056590     0.25800
C247        C  0.21580753  0.31320796  0.21756666    -0.40500
C248        C  0.21011903  0.34825412  0.22477276     0.32700
C249        C  0.18561237  0.36657290  0.20487655     0.14400
F250        F  0.15194769  0.29798506  0.14580474    -0.12900
F251        F  0.22949766  0.36521268  0.24983448    -0.13400
F252        F  0.20124073  0.26282927  0.18329849    -0.15700
F253        F  0.18197207  0.40077244  0.21120308    -0.14200
F254        F  0.11171182  0.38877927  0.20910623    -0.14300
F255        F  0.12468587  0.39022616  0.05828250    -0.15700
C256        C  0.83439273  0.32296616  0.18880632     0.14400
C257        C  0.82449838  0.34842588  0.16356298     0.01400
C258        C  0.78973832  0.35521111  0.15821408     0.16300
C259        C  0.76509693  0.33766019  0.17863392     0.25700
C260        C  0.77476108  0.31299716  0.20510640    -0.40600
C261        C  0.80966166  0.30505137  0.20913678     0.32800
C262        C  0.85013016  0.36891264  0.14334999     0.01400
F263        F  0.77971396  0.38010391  0.13430390    -0.12900
F264        F  0.81980293  0.28028569  0.23309497    -0.13400
C265        C  0.85240337  0.36639931  0.10501751     0.16300
C266        C  0.87492507  0.38758100  0.08547799     0.25800
C267        C  0.89519315  0.41200382  0.10396422    -0.40500
C268        C  0.89302935  0.41423803  0.14252094     0.32700
C269        C  0.87068460  0.39278683  0.16201135     0.14400
F270        F  0.83263340  0.34345688  0.08654765    -0.12900
F271        F  0.91305083  0.43645132  0.16161611    -0.13400
F272        F  0.87642882  0.38462329  0.04837206    -0.15700
F273        F  0.86853734  0.39581569  0.19908082    -0.14200
F274        F  0.86797647  0.31570219  0.19389879    -0.14300
F275        F  0.73197638  0.34647428  0.17371458    -0.15700
C276        C  0.85040137  0.37187086  0.39329374     0.14400
C277        C  0.85361967  0.37164423  0.35480572     0.01400
C278        C  0.88077690  0.38994906  0.33851871     0.16300
C279        C  0.90411198  0.40824447  0.36023205     0.25700
C280        C  0.90110831  0.40815390  0.39877577    -0.40600
C281        C  0.87406945  0.38968451  0.41506440     0.32800
C282        C  0.82843723  0.35278996  0.33165668     0.01400
F283        F  0.88511287  0.38955971  0.30152494    -0.12900
F284        F  0.86983931  0.38973460  0.45205009    -0.13400
C285        C  0.81052796  0.37007119  0.30365838     0.16300
C286        C  0.78633121  0.35261720  0.28234132     0.25800
C287        C  0.77965093  0.31746295  0.28846892    -0.40500
C288        C  0.79719361  0.30025141  0.31663101     0.32700
C289        C  0.82161339  0.31763897  0.33783465     0.14400
F290        F  0.81539886  0.40428117  0.29797776    -0.12900
F291        F  0.79050502  0.26657184  0.32366775    -0.13400
F292        F  0.76799433  0.37058982  0.25716006    -0.15700
F293        F  0.83871574  0.30008989  0.36433533    -0.14200
F294        F  0.82376426  0.35555628  0.40981718    -0.14300
F295        F  0.93022955  0.42522586  0.34350588    -0.15700
C296        C  0.84447101  0.68967062  0.30851981     0.14400
C297        C  0.83689273  0.66530913  0.33585815     0.01400
C298        C  0.80283353  0.65843441  0.34486328     0.16300
C299        C  0.77645404  0.67426848  0.32570128     0.25700
C300        C  0.78351934  0.69776465  0.29694348    -0.40600
C301        C  0.81797179  0.70630449  0.28964726     0.32800
C302        C  0.86392530  0.64567716  0.35458320     0.01400
F303        F  0.79504658  0.63501587  0.37137663    -0.12900
F304        F  0.82602864  0.73059654  0.26420598    -0.13400
C305        C  0.86914247  0.64993948  0.39236121     0.16300
C306        C  0.89105666  0.62801491  0.41143673     0.25800
C307        C  0.90811933  0.60124227  0.39302899    -0.40500
C308        C  0.90322708  0.59740723  0.35492771     0.32700
C309        C  0.88127310  0.61952617  0.33589238     0.14400
F310        F  0.85229900  0.67492350  0.41092671    -0.12900
F311        F  0.91975224  0.57259044  0.33589517    -0.13400
F312        F  0.89478261  0.63249627  0.44819705    -0.15700
F313        F  0.87593938  0.61466568  0.29942591    -0.14200
F314        F  0.87746249  0.69721598  0.30011373    -0.14300
F315        F  0.74416566  0.66487315  0.33461726    -0.15700
C316        C  0.88129261  0.62648671  0.15759612     0.14400
C317        C  0.85459605  0.64527788  0.14127714     0.01400
C318        C  0.85167121  0.64544468  0.10269507     0.16300
C319        C  0.87465881  0.62666448  0.08106285     0.25700
C320        C  0.90035205  0.60674374  0.09769332    -0.40600
C321        C  0.90353266  0.60705251  0.13614564     0.32800
C322        C  0.82923522  0.66312744  0.16495705     0.01400
F323        F  0.82582193  0.66267496  0.08599450    -0.12900
F324        F  0.92869875  0.58903132  0.15311633    -0.13400
C325        C  0.82134488  0.69815009  0.15985210     0.16300
C326        C  0.79783399  0.71451151  0.18302486     0.25800
C327        C  0.78268388  0.69652067  0.21237644    -0.40500
C328        C  0.79094439  0.66164578  0.21761148     0.32700
C329        C  0.81329317  0.64501976  0.19377075     0.14400
F330        F  0.83685977  0.71670254  0.13293011    -0.12900
F331        F  0.77679401  0.64317200  0.24537592    -0.13400
F332        F  0.79042087  0.74815944  0.17729919    -0.15700
F333        F  0.81880288  0.61080723  0.19844292    -0.14200
F334        F  0.88597812  0.62703915  0.19454625    -0.14300
F335        F  0.87089306  0.62682556  0.04400105    -0.15700
C336        C  0.64329013  0.15039644  0.40344740     0.14400
C337        C  0.64154974  0.15126870  0.36493898     0.01400
C338        C  0.61903502  0.12876501  0.34677547     0.16300
C339        C  0.59841142  0.10590434  0.36681466     0.25700
C340        C  0.60002528  0.10507144  0.40544834    -0.40600
C341        C  0.62272581  0.12762961  0.42351485     0.32800
C342        C  0.66106129  0.17754766  0.34395183     0.01400
F343        F  0.61632135  0.12962861  0.30961211    -0.12900
F344        F  0.62442046  0.12851074  0.46072047    -0.13400
C345        C  0.68452985  0.16811497  0.31656318     0.16300
C346        C  0.70076041  0.19337815  0.29509690     0.25800
C347        C  0.69335846  0.22845276  0.30034261    -0.40500
C348        C  0.67082711  0.23769321  0.32883444     0.32700
C349        C  0.65493479  0.21254365  0.35032359     0.14400
F350        F  0.69153386  0.13443580  0.31050209    -0.12900
F351        F  0.66210362  0.27095953  0.33448121    -0.13400
F352        F  0.72324953  0.18356164  0.26881033    -0.15700
F353        F  0.63203436  0.22239573  0.37621682    -0.14200
F354        F  0.66484700  0.17183814  0.42168864    -0.14300
F355        F  0.57719498  0.08434394  0.34831588    -0.15700
C356        C  0.68050700  0.19083090  0.16183205     0.14400
C357        C  0.64790823  0.17935833  0.17285625     0.01400
C358        C  0.63383873  0.19219789  0.20555298     0.16300
C359        C  0.65156901  0.21659351  0.22627559     0.25700
C360        C  0.68476942  0.22701634  0.21608916    -0.40600
C361        C  0.69891413  0.21409958  0.18349854     0.32800
C362        C  0.62830561  0.15457656  0.15001949     0.01400
F363        F  0.60272207  0.18127281  0.21740872    -0.12900
F364        F  0.73041544  0.22449000  0.17230047    -0.13400
C365        C  0.64321449  0.12340935  0.13888826     0.16300
C366        C  0.62472690  0.10010933  0.11736755     0.25800
C367        C  0.59073047  0.10713134  0.10755923    -0.40500
C368        C  0.57558020  0.13787525  0.11909605     0.32700
C369        C  0.59438598  0.16173048  0.13954065     0.14400
F370        F  0.67534732  0.11505682  0.14975464    -0.12900
F371        F  0.54276967  0.14514991  0.10979910    -0.13400
F372        F  0.63955831  0.07002021  0.10743944    -0.15700
F373        F  0.57960338  0.19209102  0.14856293    -0.14200
F374        F  0.69412572  0.18030411  0.12949993    -0.14300
F375        F  0.63539628  0.23128937  0.25515077    -0.15700
C376        C  0.35487849  0.14925136  0.10006652     0.14400
C377        C  0.35707445  0.15046752  0.13849939     0.01400
C378        C  0.38043168  0.12907807  0.15676883     0.16300
C379        C  0.40133647  0.10672600  0.13686656     0.25700
C380        C  0.39894750  0.10514479  0.09828016    -0.40600
C381        C  0.37558224  0.12682137  0.08010860     0.32800
C382        C  0.33703794  0.17600950  0.15929803     0.01400
F383        F  0.38357862  0.13050294  0.19387390    -0.12900
F384        F  0.37336688  0.12715104  0.04292587    -0.13400
C385        C  0.31240507  0.16564321  0.18518336     0.16300
C386        C  0.29544495  0.19019023  0.20651572     0.25800
C387        C  0.30334722  0.22538069  0.20265233    -0.40500
C388        C  0.32703008  0.23560656  0.17557512     0.32700
C389        C  0.34368686  0.21115439  0.15419517     0.14400
F390        F  0.30501507  0.13176953  0.18992602    -0.12900
F391        F  0.33586586  0.26911123  0.17119526    -0.13400
F392        F  0.27165183  0.17960140  0.23124768    -0.15700
F393        F  0.36768005  0.22172703  0.12965230    -0.14200
F394        F  0.33271295  0.16999786  0.08184607    -0.14300
F395        F  0.42358807  0.08639712  0.15548517    -0.15700
C396        C  0.36246880  0.18878110  0.30033029     0.14400
C397        C  0.34647911  0.17265966  0.33049458     0.01400
C398        C  0.31199404  0.18033745  0.33788213     0.16300
C399        C  0.29422648  0.20412579  0.31606581     0.25700
C400        C  0.31048130  0.22067814  0.28645974    -0.40600
C401        C  0.34485756  0.21289521  0.27892302     0.32800
C402        C  0.36625525  0.14899470  0.35485689     0.01400
F403        F  0.29586600  0.16586158  0.36712046    -0.12900
F404        F  0.36202799  0.22992747  0.25203177    -0.13400
C405        C  0.39758113  0.15975275  0.37027578     0.16300
C406        C  0.41711248  0.13715030  0.39170069     0.25800
C407        C  0.40525339  0.10375756  0.39914324    -0.40500
C408        C  0.37347496  0.09325505  0.38495245     0.32700
C409        C  0.35433961  0.11549106  0.36259609     0.14400
F410        F  0.40908284  0.19239515  0.36499532    -0.12900
F411        F  0.36159152  0.06096345  0.39158689    -0.13400
F412        F  0.44735977  0.14810253  0.40583904    -0.15700
F413        F  0.32471264  0.10388007  0.34756443    -0.14200
F414        F  0.39541976  0.18145635  0.29179457    -0.14300
F415        F  0.26121532  0.21153098  0.32425210    -0.15700
C416        C  0.63492894  0.80961625  0.20172733     0.14400
C417        C  0.65131995  0.83015624  0.17518297     0.01400
C418        C  0.68658263  0.82579298  0.16907660     0.16300
C419        C  0.70495736  0.80105554  0.18888553     0.25700
C420        C  0.68863542  0.78103323  0.21580803    -0.40600
C421        C  0.65344845  0.78560157  0.22210057     0.32800
C422        C  0.63144538  0.85578270  0.15378405     0.01400
F423        F  0.70336988  0.84598209  0.14446492    -0.12900
F424        F  0.63678005  0.76649776  0.24773431    -0.13400
C425        C  0.61142581  0.88049991  0.17185282     0.16300
C426        C  0.59155782  0.90372315  0.15171318     0.25800
C427        C  0.59178003  0.90301942  0.11308415    -0.40500
C428        C  0.61242271  0.87888332  0.09503252     0.32700
C429        C  0.63174673  0.85521257  0.11517671     0.14400
F430        F  0.61159009  0.88256173  0.20907745    -0.12900
F431        F  0.61317266  0.87758240  0.05779004    -0.13400
F432        F  0.57312436  0.92764729  0.17007970    -0.15700
F433        F  0.65004352  0.83109656  0.09692442    -0.14200
F434        F  0.60073612  0.81227201  0.20741257    -0.14300
F435        F  0.73892664  0.79743600  0.18265626    -0.15700
C436        C  0.68213973  0.84066767  0.31283232     0.14400
C437        C  0.65830238  0.83125007  0.33988485     0.01400
C438        C  0.65324871  0.79636857  0.34795063     0.16300
C439        C  0.67053683  0.77106623  0.32826484     0.25700
C440        C  0.69290071  0.78007895  0.29933262    -0.40600
C441        C  0.69953174  0.81532763  0.29293939     0.32800
C442        C  0.63864677  0.85744425  0.36024166     0.01400
F443        F  0.63129351  0.78677343  0.37501517    -0.12900
F444        F  0.72297609  0.82528975  0.26755733    -0.13400
C445        C  0.60325382  0.86053695  0.35474875     0.16300
C446        C  0.58403443  0.88328164  0.37610017     0.25800
C447        C  0.59985162  0.90309415  0.40367311    -0.40500
C448        C  0.63554152  0.90032535  0.40855630     0.32700
C449        C  0.65468933  0.87774452  0.38696721     0.14400
F450        F  0.58730125  0.84127750  0.32878677    -0.12900
F451        F  0.65225439  0.91985037  0.43365849    -0.13400
F452        F  0.54980168  0.88527610  0.37034804    -0.15700
F453        F  0.68887448  0.87509839  0.39271553    -0.14200
F454        F  0.68802339  0.87437613  0.30518922    -0.14300
F455        F  0.66439801  0.73781961  0.33729160    -0.15700
C456        C  0.36677438  0.84968244  0.40321101     0.14400
C457        C  0.36632879  0.84847763  0.36464713     0.01400
C458        C  0.38608399  0.87234915  0.34469727     0.16300
C459        C  0.40631777  0.89670645  0.36294597     0.25700
C460        C  0.40700665  0.89780550  0.40156400    -0.40600
C461        C  0.38667985  0.87432309  0.42150656     0.32800
C462        C  0.34639577  0.82162254  0.34502926     0.01400
F463        F  0.38623469  0.87165845  0.30741836    -0.12900
F464        F  0.38658862  0.87477917  0.45878962    -0.13400
C465        C  0.32047566  0.83076643  0.32012529     0.16300
C466        C  0.30415489  0.80558280  0.29888586     0.25800
C467        C  0.31397752  0.77085929  0.30160102    -0.40500
C468        C  0.33865218  0.76158211  0.32803460     0.32700
C469        C  0.35464459  0.78673074  0.34952283     0.14400
F470        F  0.31132239  0.86420979  0.31603590    -0.12900
F471        F  0.34917170  0.72851600  0.33143229    -0.13400
F472        F  0.27918505  0.81521403  0.27512518    -0.15700
F473        F  0.37966752  0.77718241  0.37327723    -0.14200
F474        F  0.34772204  0.82710802  0.42313738    -0.14300
F475        F  0.42440606  0.91982248  0.34272952    -0.15700
C476        C  0.38446255  0.88224884  0.16518346     0.14400
C477        C  0.36902113  0.85300710  0.14970504     0.01400
C478        C  0.37153183  0.84760422  0.11160346     0.16300
C479        C  0.38897588  0.87125432  0.08934493     0.25700
C480        C  0.40478287  0.90021208  0.10497934    -0.40600
C481        C  0.40247197  0.90545823  0.14309312     0.32800
C482        C  0.35098478  0.82786446  0.17348134     0.01400
F483        F  0.35792427  0.81892314  0.09611132    -0.12900
F484        F  0.41686762  0.93359541  0.15890987    -0.13400
C485        C  0.31682586  0.81869559  0.16634046     0.16300
C486        C  0.30026908  0.79417178  0.18823007     0.25800
C487        C  0.31751094  0.77854390  0.21767345    -0.40500
C488        C  0.35172612  0.78769680  0.22477207     0.32700
C489        C  0.36817530  0.81236951  0.20309251     0.14400
F490        F  0.29953417  0.83344005  0.13808477    -0.12900
F491        F  0.37007165  0.77105277  0.25095935    -0.13400
F492        F  0.26751540  0.78518543  0.18030229    -0.15700
F493        F  0.40150753  0.81988644  0.20990690    -0.14200
F494        F  0.38166560  0.88859813  0.20170545    -0.14300
F495        F  0.39146138  0.86520634  0.05275089    -0.15700
C496        C  0.39197877  0.64224377  0.31281461     0.14400
C497        C  0.37525193  0.62107278  0.33868064     0.01400
C498        C  0.33957200  0.61773520  0.33723049     0.16300
C499        C  0.32075530  0.63676327  0.31185683     0.25700
C500        C  0.33718242  0.65955634  0.28750822    -0.40600
C501        C  0.37303166  0.66145787  0.28739766     0.32800
C502        C  0.39455349  0.60441786  0.36880137     0.01400
F503        F  0.32272179  0.59759359  0.36185911    -0.12900
F504        F  0.38951513  0.68357895  0.26449195    -0.13400
C505        C  0.41380499  0.62455539  0.39325773     0.16300
C506        C  0.43252663  0.60906480  0.42146651     0.25800
C507        C  0.43220753  0.57304694  0.42592967    -0.40500
C508        C  0.41117754  0.55313874  0.40268889     0.32700
C509        C  0.39283838  0.56866846  0.37418192     0.14400
F510        F  0.41446652  0.65934679  0.38978790    -0.12900
F511        F  0.40955814  0.51843888  0.40620568    -0.13400
F512        F  0.45142785  0.62935443  0.44404802    -0.15700
F513        F  0.37438285  0.54860170  0.35095207    -0.14200
F514        F  0.42657902  0.64509485  0.31299359    -0.14300
F515        F  0.28623895  0.63373093  0.31197148    -0.15700
C516        C  0.42742216  0.62731766  0.11355635     0.14400
C517        C  0.39259738  0.61922394  0.11659829     0.01400
C518        C  0.37832154  0.59395108  0.09354563     0.16300
C519        C  0.39903709  0.57623569  0.06859349     0.25700
C520        C  0.43401480  0.58425210  0.06590328    -0.40600
C521        C  0.44781995  0.61034327  0.08833257     0.32800
C522        C  0.37203265  0.63675816  0.14482715     0.01400
F523        F  0.34442174  0.58651614  0.09521034    -0.12900
F524        F  0.48168440  0.61821455  0.08757503    -0.13400
C525        C  0.37178239  0.67283480  0.14622524     0.16300
C526        C  0.35554227  0.68965575  0.17494697     0.25800
C527        C  0.33827639  0.67083711  0.20230442    -0.40500
C528        C  0.33790637  0.63470931  0.20059722     0.32700
C529        C  0.35503553  0.61777560  0.17225471     0.14400
F530        F  0.38724799  0.69185622  0.11959318    -0.12900
F531        F  0.31970115  0.61587054  0.22523436    -0.13400
F532        F  0.35664523  0.72451518  0.17583440    -0.15700
F533        F  0.35538519  0.58286224  0.17182702    -0.14200
F534        F  0.44215851  0.65076913  0.13624509    -0.14300
F535        F  0.38500463  0.55139722  0.04716467    -0.15700
C536        C  0.66651240  0.60792248  0.31249574     0.14400
C537        C  0.63362158  0.61694535  0.32439638     0.01400
C538        C  0.62105842  0.65006987  0.31685923     0.16300
C539        C  0.64133182  0.67395963  0.29832204     0.25700
C540        C  0.67495668  0.66570904  0.28876761    -0.40600
C541        C  0.68710456  0.63223592  0.29485633     0.32800
C542        C  0.61329591  0.59314258  0.34721726     0.01400
F543        F  0.58956441  0.65968770  0.32853235    -0.12900
F544        F  0.71879645  0.62302320  0.28361301    -0.13400
C545        C  0.62670777  0.58122904  0.38065662     0.16300
C546        C  0.60567429  0.56427649  0.40570932     0.25800
C547        C  0.57076795  0.55932815  0.39789688    -0.40500
C548        C  0.55798935  0.56887910  0.36322617     0.32700
C549        C  0.57921408  0.58557490  0.33799793     0.14400
F550        F  0.65957823  0.58812589  0.39024130    -0.12900
F551        F  0.52451977  0.56418280  0.35460550    -0.13400
F552        F  0.61924840  0.55387854  0.43822437    -0.15700
F553        F  0.56611761  0.59579146  0.30520164    -0.14200
F554        F  0.67867600  0.57566187  0.31813992    -0.14300
F555        F  0.62798219  0.70502472  0.28935596    -0.15700
C556        C  0.58347244  0.58969844  0.15775456     0.14400
C557        C  0.61577368  0.60105212  0.14604109     0.01400
C558        C  0.62683193  0.59373781  0.11037625     0.16300
C559        C  0.60498938  0.57739843  0.08576300     0.25700
C560        C  0.57145196  0.56830994  0.09638534    -0.40600
C561        C  0.56140311  0.57333792  0.13313740     0.32800
C562        C  0.63646513  0.62393763  0.16922504     0.01400
F563        F  0.65810416  0.60435642  0.09864993    -0.12900
F564        F  0.52982449  0.56384250  0.14494940    -0.13400
C565        C  0.66969806  0.61469618  0.17963326     0.16300
C566        C  0.69014178  0.63793884  0.19888786     0.25800
C567        C  0.67753021  0.67054928  0.20815166    -0.40500
C568        C  0.64437333  0.67976336  0.19755799     0.32700
C569        C  0.62395151  0.65663703  0.17818492     0.14400
F570        F  0.68220815  0.58313999  0.17126809    -0.12900
F571        F  0.63163841  0.71103645  0.20617818    -0.13400
F572        F  0.72207671  0.62838982  0.20866731    -0.15700
F573        F  0.59220363  0.66641329  0.16737852    -0.14200
F574        F  0.57295535  0.59553828  0.19270320    -0.14300
F575        F  0.61649016  0.57159231  0.05116479    -0.15700
C576        C  0.58759929  0.37303021  0.39787709     0.14400
C577        C  0.61385067  0.39094616  0.37959497     0.01400
C578        C  0.61975876  0.42573412  0.38776185     0.16300
C579        C  0.59850591  0.44285272  0.41227738     0.25700
C580        C  0.57065108  0.42557839  0.42857508    -0.40600
C581        C  0.56598819  0.39024241  0.42200993     0.32800
C582        C  0.63402727  0.37370732  0.35091522     0.01400
F583        F  0.64498671  0.44365861  0.37056426    -0.12900
F584        F  0.53931018  0.37277628  0.43707404    -0.13400
C585        C  0.61743254  0.35723881  0.32152761     0.16300
C586        C  0.63628611  0.33921528  0.29548796     0.25800
C587        C  0.67215678  0.33864443  0.29756241    -0.40500
C588        C  0.68872914  0.35631619  0.32616591     0.32700
C589        C  0.66982818  0.37330810  0.35288242     0.14400
F590        F  0.58285650  0.35818103  0.31836425    -0.12900
F591        F  0.72329306  0.35658750  0.32882013    -0.13400
F592        F  0.61930171  0.32062878  0.26976059    -0.15700
F593        F  0.68648509  0.38832708  0.38140206    -0.14200
F594        F  0.58232066  0.33900491  0.39156885    -0.14300
F595        F  0.60451362  0.47667508  0.41906588    -0.15700
C596        C  0.62426067  0.34188631  0.16431320     0.14400
C597        C  0.62947687  0.37769425  0.16269194     0.01400
C598        C  0.65309036  0.39297182  0.18699351     0.16300
C599        C  0.67114014  0.37276197  0.21221960     0.25700
C600        C  0.66674066  0.33690052  0.21267261    -0.40600
C601        C  0.64321160  0.32166217  0.18853749     0.32800
C602        C  0.60966052  0.39885018  0.13620637     0.01400
F603        F  0.65963311  0.42727112  0.18542584    -0.12900
F604        F  0.63828397  0.28710053  0.18866762    -0.13400
C605        C  0.59139352  0.42771149  0.14839520     0.16300
C606        C  0.57067153  0.44608702  0.12415783     0.25800
C607        C  0.56674392  0.43521840  0.08757224    -0.40500
C608        C  0.58551679  0.40691893  0.07501522     0.32700
C609        C  0.60734610  0.38929192  0.09895361     0.14400
F610        F  0.59214677  0.43715759  0.18424743    -0.12900
F611        F  0.58292029  0.39652590  0.03955399    -0.13400
F612        F  0.55285728  0.47340363  0.13711852    -0.15700
F613        F  0.62611700  0.36275262  0.08577273    -0.14200
F614        F  0.60047503  0.32643583  0.14269040    -0.14300
F615        F  0.69442641  0.38794617  0.23464180    -0.15700
C616        C  0.40965627  0.42197016  0.34372048     0.14400
C617        C  0.38591422  0.39988572  0.36036957     0.01400
C618        C  0.38335199  0.39871962  0.39873947     0.16300
C619        C  0.40508676  0.41876677  0.42042026     0.25700
C620        C  0.42992951  0.44017732  0.40390098    -0.40600
C621        C  0.43150703  0.44194391  0.36517329     0.32800
C622        C  0.36499312  0.37689922  0.33753378     0.01400
F623        F  0.36001700  0.37779927  0.41516175    -0.12900
F624        F  0.45482895  0.46217476  0.34777803    -0.13400
C625        C  0.37034848  0.34123482  0.33885022     0.16300
C626        C  0.35133818  0.31938713  0.31633308     0.25800
C627        C  0.32706737  0.33302485  0.29201177    -0.40500
C628        C  0.32164292  0.36874578  0.29080245     0.32700
C629        C  0.34055762  0.39056101  0.31342813     0.14400
F630        F  0.39452664  0.32773358  0.36138497    -0.12900
F631        F  0.29731905  0.38237969  0.26858296    -0.13400
F632        F  0.35717194  0.28501489  0.31763145    -0.15700
F633        F  0.33473677  0.42496223  0.31227516    -0.14200
F634        F  0.41261134  0.42310809  0.30657298    -0.14300
F635        F  0.40226690  0.41642905  0.45749670    -0.15700
C636        C  0.37867201  0.35991373  0.19008332     0.14400
C637        C  0.36236906  0.38307516  0.16612322     0.01400
C638        C  0.32655132  0.38228810  0.16316270     0.16300
C639        C  0.30736546  0.35889502  0.18398647     0.25700
C640        C  0.32360815  0.33638724  0.20866187    -0.40600
C641        C  0.35947719  0.33678206  0.21113866     0.32800
C642        C  0.38293416  0.40731311  0.14362225     0.01400
F643        F  0.31010410  0.40461910  0.14056597    -0.12900
F644        F  0.37601537  0.31397616  0.23309636    -0.13400
C645        C  0.38051872  0.40688077  0.10515232     0.16300
C646        C  0.40182697  0.42781138  0.08377255     0.25800
C647        C  0.42633984  0.44944306  0.10047156    -0.40500
C648        C  0.42779226  0.45065920  0.13917654     0.32700
C649        C  0.40621467  0.42990681  0.16043945     0.14400
F650        F  0.35856076  0.38497351  0.08813624    -0.12900
F651        F  0.45092642  0.47093474  0.15668898    -0.13400
F652        F  0.39899942  0.42597484  0.04666813    -0.15700
F653        F  0.40841838  0.43149859  0.19761465    -0.14200
F654        F  0.41330577  0.35910420  0.19239152    -0.14300
F655        F  0.27287056  0.35884978  0.18056696    -0.15700
O656        O  0.53749133  0.48273341  0.56602650    -0.78400
O657        O  0.51866162  0.53534367  0.91948632    -0.78400
O658        O  0.52480773  0.43285484  0.96968056    -0.78400
O659        O  0.55537402  0.55500843  0.53483738    -0.78400
O660        O  0.54188027  0.47843850  0.94226469    -0.78500
O661        O  0.51817476  0.54240206  0.57780139    -0.78400
O662        O  0.55540500  0.55265689  0.96035492    -0.78400
O663        O  0.52275930  0.43491743  0.54157627    -0.78400
C664        C  0.54161011  0.45126737  0.56324972     1.11300
C665        C  0.54706811  0.54922107  0.92715847     1.11200
C666        C  0.54576205  0.44734552  0.94865087     1.11300
C667        C  0.54726287  0.55407985  0.56838759     1.11200
O668        O  0.45357055  0.53107303  0.53813168    -0.78400
O669        O  0.47892443  0.47814805  0.91089279    -0.78500
O670        O  0.45314055  0.46259875  0.54259158    -0.78400
O671        O  0.48393330  0.57316525  0.95905434    -0.78400
O672        O  0.45471562  0.52537903  0.95883302    -0.78500
O673        O  0.47343759  0.48790069  0.59278549    -0.78400
O674        O  0.48541750  0.57679896  0.53264974    -0.78400
O675        O  0.45517853  0.45819439  0.96208689    -0.78500
Co676      Co  0.49515362  0.50429209  0.54998253     1.51500
Co677      Co  0.49783338  0.49960056  0.95234116     1.51700
Co678      Co  0.49143610  0.45493977  0.00372369     1.51600
Co679      Co  0.52014787  0.56004667  0.49680363     1.51500
O680        O  0.51240356  0.50738521  0.50089074    -1.40300
C681        C  0.45774320  0.56286581  0.54291107     1.11200
C682        C  0.45646205  0.45971018  0.92648181     1.11300
C683        C  0.45275084  0.46688024  0.57793732     1.11200
C684        C  0.45681755  0.55685352  0.95084261     1.11200
C685        C  0.57368021  0.92869151  0.59058633     0.44200
N686        N  0.55961048  0.96643495  0.55023124     0.03100
C687        C  0.41078247  0.06291355  0.54558403    -0.04800
H688        H  0.39292275  0.93167945  0.52967925     0.08600
C689        C  0.46160545  0.93881961  0.90957312    -0.05200
Co690      Co  0.49567416  0.00365132  0.57122286     0.74200
N691        N  0.43662415  0.96417182  0.54075352    -0.24300
Co692      Co  0.43736678  0.00153147  0.49940916     0.74100
C693        C  0.42956244  0.92240390  0.92106725     0.44300
N694        N  0.54362440  0.96424289  0.94139758     0.02700
N695        N  0.44184847  0.96335072  0.95826033     0.02800
N696        N  0.44887160  0.06343094  0.59233281    -0.45200
H697        H  0.52559938  0.93984840  0.62512507     0.08600
N698        N  0.45861648  0.96531889  0.56824502     0.03100
N699        N  0.44102227  0.03833830  0.95634223     0.02800
C700        C  0.42921844  0.07921010  0.91878141     0.44400
N701        N  0.56514714  0.96477308  0.96932605    -0.23800
C702        C  0.53819080  0.06717518  0.59667143    -0.04700
N703        N  0.58368335  0.94395314  0.55897087    -0.44900
N704        N  0.41746948  0.06154947  0.94816241    -0.45100
C705        C  0.57083430  0.08243059  0.58607430     0.44200
N706        N  0.45686230  0.04007872  0.56736273     0.03100
N707        N  0.56539507  0.03920884  0.96801890    -0.23800
N708        N  0.53453907  0.96715960  0.57442591    -0.24300
N709        N  0.54391035  0.03928027  0.94006931     0.02700
H710        H  0.61121770  0.06761101  0.97999407     0.08600
H711        H  0.47839288  0.07002978  0.88552844     0.08600
N712        N  0.43477042  0.03903084  0.54000390    -0.24400
N713        N  0.46713861  0.96381959  0.93427244    -0.24000
N714        N  0.55908980  0.04120785  0.54928404     0.03100
C715        C  0.42546030  0.92321008  0.58167330     0.44500
C716        C  0.58878418  0.94038850  0.96430538    -0.05200
N717        N  0.46714913  0.03895112  0.93337568    -0.24000
H718        H  0.47751837  0.93351017  0.88601003     0.08600
N719        N  0.45254209  0.94161545  0.59356497    -0.45200
H720        H  0.61023006  0.93573253  0.98233768     0.08600
C721        C  0.58060881  0.07889811  0.92713729     0.44300
C722        C  0.54104960  0.94406694  0.60090657    -0.04700
Co723      Co  0.56227842  0.00343045  0.50880857     0.73800
N724        N  0.55162366  0.94062767  0.91672758    -0.44900
C725        C  0.42023317  0.07919937  0.58026840     0.44600
N726        N  0.58258556  0.06477197  0.55687970    -0.44900
Co727      Co  0.50551884  0.00162531  0.93649820     0.74800
C728        C  0.46209632  0.06422032  0.90872538    -0.05200
C729        C  0.41470506  0.93809300  0.54666520    -0.04800
N730        N  0.53319799  0.04170590  0.57251112    -0.24300
N731        N  0.41881633  0.93915433  0.95130033    -0.45100
H732        H  0.38841884  0.06665901  0.52860714     0.08600
C733        C  0.58931731  0.06334851  0.96246583    -0.05200
Cl734      Cl  0.49984141  0.00289568  0.50397339    -0.48200
C735        C  0.57986925  0.92438288  0.92923996     0.44300
H736        H  0.52216237  0.07273964  0.62007629     0.08500
N737        N  0.55233485  0.06238858  0.91472721    -0.44900
C738        C  0.92064234  0.43389711  0.58382524     0.44200
N739        N  0.96145281  0.44649356  0.54665994     0.03100
C740        C  0.06167759  0.59409720  0.54685359    -0.04800
H741        H  0.93739235  0.61792982  0.52285592     0.08600
C742        C  0.94710231  0.54748989  0.90422823    -0.05200
Co743      Co  0.99886213  0.51025753  0.56923669     0.74200
N744        N  0.96448510  0.57099322  0.53532621    -0.24300
Co745      Co  0.00372423  0.56728287  0.49659201     0.74100
C746        C  0.93206527  0.58026238  0.91540764     0.44300
N747        N  0.96601543  0.46324636  0.93611674     0.02700
N748        N  0.96936317  0.56511146  0.95513350     0.02800
N749        N  0.05784412  0.55687194  0.59455782    -0.45200
H750        H  0.93122799  0.48266750  0.61827799     0.08600
N751        N  0.96269905  0.54913692  0.56308719     0.03100
N752        N  0.04343595  0.56216533  0.95960673     0.02800
C753        C  0.08718287  0.57172225  0.92579333     0.44400
N754        N  0.96347552  0.44111490  0.96359278    -0.23800
C755        C  0.05846292  0.46619972  0.60003015    -0.04700
N756        N  0.93798575  0.42290650  0.55409547    -0.44900
N757        N  0.06855084  0.58442733  0.95378158    -0.45100
C758        C  0.07441308  0.43354125  0.59058072     0.44200
N759        N  0.03679135  0.54819321  0.56757053     0.03100
N760        N  0.03729916  0.43773041  0.96822421    -0.23800
N761        N  0.96107833  0.47230021  0.57008054    -0.24300
N762        N  0.03999063  0.45983938  0.94086276     0.02700
H763        H  0.06164169  0.38967073  0.98036435     0.08600
H764        H  0.07698666  0.52344722  0.89101836     0.08600
N765        N  0.03835467  0.56978424  0.53963410    -0.24400
N766        N  0.96991056  0.54014407  0.93067944    -0.24000
N767        N  0.03589108  0.44537448  0.55052594     0.03100
C768        C  0.92394119  0.58651847  0.57469812     0.44500
C769        C  0.93832529  0.41869306  0.95596799    -0.05200
N770        N  0.04391758  0.53625058  0.93628178    -0.24000
H771        H  0.94240338  0.53229087  0.87990999     0.08600
N772        N  0.93922672  0.55778255  0.58747878    -0.45200
H773        H  0.93152198  0.39655220  0.97250824     0.08600
C774        C  0.07733073  0.42100472  0.92895591     0.44300
C775        C  0.93604481  0.46679418  0.59454721    -0.04700
Co776      Co  0.00008911  0.44184211  0.50786729     0.73800
N777        N  0.94411059  0.45680297  0.90923290    -0.44900
C778        C  0.07448326  0.58566088  0.58347579     0.44600
N779        N  0.05905687  0.42205353  0.55966442    -0.44900
Co780      Co  0.00499464  0.49986124  0.93525083     0.73900
C781        C  0.07086700  0.53989553  0.91396632    -0.05200
C782        C  0.94068271  0.59542587  0.54002032    -0.04800
N783        N  0.03501647  0.47135079  0.57380622    -0.24300
N784        N  0.94724307  0.58955580  0.94702500    -0.45100
H785        H  0.06726239  0.61588251  0.52932430     0.08600
C786        C  0.05988568  0.41239110  0.96331610    -0.05200
Cl787      Cl  0.00186937  0.50455979  0.50223888    -0.48200
C788        C  0.92548447  0.42923314  0.91990299     0.44300
H789        H  0.06290162  0.48275921  0.62337182     0.08500
N790        N  0.06337155  0.45063265  0.91658156    -0.44900
C791        C  0.27737751  0.28722664  0.71678752     0.47200
H792        H  0.27464703  0.28910302  0.68647776    -0.01800
C793        C  0.28360800  0.28296732  0.78772959     0.47200
H794        H  0.28666315  0.28108075  0.81798644    -0.01800
C795        C  0.30345427  0.31275284  0.73267543    -0.15500
C796        C  0.24416114  0.29513840  0.73765455    -0.15300
C797        C  0.28988591  0.25177641  0.73024914    -0.15700
C798        C  0.30644188  0.31063406  0.77012981    -0.15600
C799        C  0.24730161  0.29263212  0.77526693    -0.15200
C800        C  0.29328055  0.24970283  0.76785165    -0.15500
C801        C  0.71219477  0.28819824  0.71818614     0.47200
H802        H  0.70924191  0.28703587  0.68787066    -0.01800
C803        C  0.71870163  0.29095912  0.78902513     0.47200
H804        H  0.72163078  0.29199527  0.81934460    -0.01800
C805        C  0.68885367  0.31493488  0.73624779    -0.15500
C806        C  0.70299959  0.25429872  0.73761935    -0.15300
C807        C  0.74843285  0.29831560  0.73069235    -0.15700
C808        C  0.69244051  0.31660506  0.77375100    -0.15600
C809        C  0.70646086  0.25564260  0.77521993    -0.15200
C810        C  0.75168507  0.29985330  0.76828039    -0.15500
C811        C  0.29043079  0.71605310  0.71556364     0.47200
H812        H  0.29029097  0.71966219  0.68529475    -0.01800
C813        C  0.29048651  0.70779688  0.78623258     0.47200
H814        H  0.29052986  0.70410330  0.81649782    -0.01800
C815        C  0.31513435  0.68788103  0.72871203    -0.15500
C816        C  0.30162962  0.74825376  0.73663967    -0.15300
C817        C  0.25541387  0.70541444  0.73091660    -0.15700
C818        C  0.31478346  0.68321852  0.76618212    -0.15600
C819        C  0.30159668  0.74411070  0.77416765    -0.15200
C820        C  0.25560124  0.70092469  0.76839777    -0.15500
C821        C  0.72238445  0.72256443  0.71726251     0.47200
H822        H  0.72361094  0.72513332  0.68688766    -0.01800
C823        C  0.71859105  0.71615055  0.78822605     0.47200
H824        H  0.71667940  0.71378104  0.81841697    -0.01800
C825        C  0.69877467  0.69336248  0.72972656    -0.15500
C826        C  0.75686125  0.71363796  0.73548948    -0.15300
C827        C  0.70835452  0.75469046  0.73684548    -0.15700
C828        C  0.69663950  0.68998389  0.76692761    -0.15600
C829        C  0.75499506  0.71079498  0.77335058    -0.15200
C830        C  0.70688584  0.75153490  0.77447990    -0.15500
C831        C  0.13873278  0.61001470  0.65701922     0.14400
C832        C  0.14441422  0.64497750  0.64928060     0.01400
C833        C  0.12554817  0.66103699  0.62145141     0.16300
C834        C  0.10225715  0.64205205  0.60046174     0.25700
C835        C  0.09755513  0.60651153  0.60696825    -0.40600
C836        C  0.11535097  0.59095504  0.63620867     0.32800
C837        C  0.17240342  0.66361273  0.66784054     0.01400
F838        F  0.13057526  0.69488862  0.61379052    -0.12900
F839        F  0.11106746  0.55700742  0.64388823    -0.13400
C840        C  0.20626841  0.65539632  0.65918643     0.16300
C841        C  0.23326935  0.67074436  0.67809438     0.25800
C842        C  0.22686675  0.69439497  0.70647956    -0.40500
C843        C  0.19287876  0.70412184  0.71368737     0.32700
C844        C  0.16577714  0.68873556  0.69449406     0.14400
F845        F  0.21312850  0.63161388  0.63299442    -0.12900
F846        F  0.18593823  0.72773693  0.73999891    -0.13400
F847        F  0.26548902  0.66036004  0.67032924    -0.15700
F848        F  0.13310449  0.69733976  0.70283125    -0.14200
F849        F  0.15648788  0.59419244  0.68427274    -0.14300
F850        F  0.08422950  0.65873433  0.57408757    -0.15700
C851        C  0.16486483  0.59362467  0.86899133     0.14400
C852        C  0.15850708  0.62824784  0.85978582     0.01400
C853        C  0.12914551  0.64434720  0.87375190     0.16300
C854        C  0.10671964  0.62630440  0.89662065     0.25700
C855        C  0.11257494  0.59150406  0.90478052    -0.40600
C856        C  0.14169195  0.57522937  0.89073915     0.32800
C857        C  0.18223112  0.64748691  0.83546878     0.01400
F858        F  0.12149096  0.67721966  0.86419507    -0.12900
F859        F  0.14791650  0.54164074  0.89852094    -0.13400
C860        C  0.19246974  0.63346844  0.80169839     0.16300
C861        C  0.21613600  0.65077418  0.77969930     0.25800
C862        C  0.22836656  0.68350753  0.78987304    -0.40500
C863        C  0.21763435  0.69783410  0.82321487     0.32700
C864        C  0.19519476  0.67978250  0.84610260     0.14400
F865        F  0.17987284  0.60275434  0.79011999    -0.12900
F866        F  0.22957166  0.72905035  0.83402861    -0.13400
F867        F  0.22866599  0.63442027  0.74976915    -0.15700
F868        F  0.18705499  0.69336512  0.87924527    -0.14200
F869        F  0.19366941  0.57768979  0.85724775    -0.14300
F870        F  0.07834146  0.64239323  0.90925031    -0.15700
C871        C  0.16139562  0.31491194  0.81778273     0.14400
C872        C  0.17130566  0.33810156  0.84525654     0.01400
C873        C  0.20607529  0.34391865  0.85193524     0.16300
C874        C  0.23078048  0.32818026  0.83020231     0.25700
C875        C  0.22113868  0.30573792  0.80157558    -0.40600
C876        C  0.18614477  0.29825314  0.79661507     0.32800
C877        C  0.14567948  0.35769114  0.86606414     0.01400
F878        F  0.21607153  0.36623841  0.87851504    -0.12900
F879        F  0.17588109  0.27513054  0.77099809    -0.13400
C880        C  0.14011374  0.35058724  0.90332079     0.16300
C881        C  0.11798322  0.37105309  0.92390482     0.25800
C882        C  0.10105766  0.39917558  0.90746774    -0.40500
C883        C  0.10673629  0.40602233  0.86987709     0.32700
C884        C  0.12879865  0.38538499  0.84941482     0.14400
F885        F  0.15648835  0.32396518  0.91984314    -0.12900
F886        F  0.09095528  0.43264179  0.85271087    -0.13400
F887        F  0.11405386  0.36369211  0.96007987    -0.15700
F888        F  0.13444153  0.39297389  0.81349161    -0.14200
F889        F  0.12776204  0.30872695  0.81127308    -0.14300
F890        F  0.26392631  0.33667512  0.83617017    -0.15700
C891        C  0.11812759  0.39348690  0.67319887     0.14400
C892        C  0.14321119  0.37302338  0.65644606     0.01400
C893        C  0.14562412  0.37285936  0.61788571     0.16300
C894        C  0.12315598  0.39245891  0.59649069     0.25700
C895        C  0.09830490  0.41311853  0.61326127    -0.40600
C896        C  0.09604016  0.41352301  0.65183866     0.32800
C897        C  0.16737616  0.35248121  0.67904959     0.01400
F898        F  0.17034356  0.35434266  0.60094552    -0.12900
F899        F  0.07163454  0.43230376  0.66895667    -0.13400
C900        C  0.17119640  0.31692464  0.67307337     0.16300
C901        C  0.19585044  0.29815879  0.69249439     0.25800
C902        C  0.21635290  0.31438663  0.71892112    -0.40500
C903        C  0.21181045  0.34968728  0.72573638     0.32700
C904        C  0.18772776  0.36859681  0.70584052     0.14400
F905        F  0.15095953  0.30038312  0.64845385    -0.12900
F906        F  0.23186838  0.36626934  0.75044640    -0.13400
F907        F  0.19958689  0.26406470  0.68573923    -0.15700
F908        F  0.18532619  0.40299190  0.71166618    -0.14200
F909        F  0.11452668  0.39352819  0.71028436    -0.14300
F910        F  0.12630439  0.39197454  0.55936741    -0.15700
C911        C  0.83383707  0.32336187  0.68841241     0.14400
C912        C  0.82390057  0.34981689  0.66434415     0.01400
C913        C  0.78907487  0.35655409  0.65922483     0.16300
C914        C  0.76448053  0.33824740  0.67900708     0.25700
C915        C  0.77424908  0.31305295  0.70484130    -0.40600
C916        C  0.80917228  0.30499536  0.70842159     0.32800
C917        C  0.84956607  0.37099910  0.64481157     0.01400
F918        F  0.77888732  0.38147658  0.63543786    -0.12900
F919        F  0.81942502  0.27990273  0.73193660    -0.13400
C920        C  0.87054184  0.35628308  0.61800137     0.16300
C921        C  0.89339904  0.37676363  0.59800529     0.25800
C922        C  0.89583279  0.41245616  0.60466207    -0.40500
C923        C  0.87472105  0.42705741  0.63173640     0.32700
C924        C  0.85187214  0.40647169  0.65162793     0.14400
F925        F  0.86829436  0.32213732  0.61059929    -0.12900
F926        F  0.87540703  0.46134617  0.63850769    -0.13400
F927        F  0.91326923  0.36143616  0.57231736    -0.15700
F928        F  0.83186139  0.42118963  0.67762231    -0.14200
F929        F  0.86745113  0.31626011  0.69355800    -0.14300
F930        F  0.73128412  0.34681973  0.67417304    -0.15700
C931        C  0.84952948  0.37500287  0.89070749     0.14400
C932        C  0.85305290  0.37468861  0.85228289     0.01400
C933        C  0.88010892  0.39321832  0.83609522     0.16300
C934        C  0.90338649  0.41142026  0.85799054     0.25700
C935        C  0.90028078  0.41103270  0.89653730    -0.40600
C936        C  0.87306711  0.39271140  0.91261845     0.32800
C937        C  0.82841686  0.35509285  0.82929208     0.01400
F938        F  0.88448838  0.39300104  0.79910323    -0.12900
F939        F  0.86863230  0.39266109  0.94957425    -0.13400
C940        C  0.80984706  0.37171204  0.80137491     0.16300
C941        C  0.78556774  0.35357112  0.78086368     0.25800
C942        C  0.77960921  0.31837260  0.78766316    -0.40500
C943        C  0.79796761  0.30180160  0.81561595     0.32700
C944        C  0.82241340  0.31988857  0.83603849     0.14400
F945        F  0.81404790  0.40592434  0.79511818    -0.12900
F946        F  0.79197941  0.26811376  0.82328880    -0.13400
F947        F  0.76637175  0.37093849  0.75594395    -0.15700
F948        F  0.84024558  0.30302129  0.86248799    -0.14200
F949        F  0.82279813  0.35867758  0.90704251    -0.14300
F950        F  0.92959497  0.42845042  0.84147853    -0.15700
C951        C  0.84373124  0.69177332  0.81217547     0.14400
C952        C  0.83611757  0.66628901  0.83843215     0.01400
C953        C  0.80194088  0.65762653  0.84518391     0.16300
C954        C  0.77578397  0.67322125  0.82548713     0.25700
C955        C  0.78306003  0.69739929  0.79747746    -0.40600
C956        C  0.81740120  0.70735757  0.79197808     0.32800
C957        C  0.86325988  0.64718958  0.85799584     0.01400
F958        F  0.79379043  0.63273018  0.86998824    -0.12900
F959        F  0.82548466  0.73233788  0.76731502    -0.13400
C960        C  0.86312711  0.64550144  0.89656285     0.16300
C961        C  0.88535159  0.62341454  0.91503112     0.25800
C962        C  0.90820415  0.60268492  0.89529224    -0.40500
C963        C  0.90907631  0.60506028  0.85678034     0.32700
C964        C  0.88677400  0.62721486  0.83826553     0.14400
F965        F  0.84091417  0.66479287  0.91632362    -0.12900
F966        F  0.93184500  0.58644568  0.83707416    -0.13400
F967        F  0.88376813  0.62148967  0.95224457    -0.15700
F968        F  0.88726815  0.62821865  0.80100193    -0.14200
F969        F  0.87660697  0.70155846  0.80617133    -0.14300
F970        F  0.74350116  0.66318883  0.83346837    -0.15700
C971        C  0.88313108  0.62946396  0.65670490     0.14400
C972        C  0.85551689  0.64700430  0.64065960     0.01400
C973        C  0.85142456  0.64593406  0.60224557     0.16300
C974        C  0.87413313  0.62690656  0.58048682     0.25700
C975        C  0.90085701  0.60822230  0.59689410    -0.40600
C976        C  0.90534275  0.61006193  0.63515453     0.32800
C977        C  0.83029506  0.66461214  0.66460436     0.01400
F978        F  0.82469270  0.66212781  0.58596881    -0.12900
F979        F  0.93166838  0.59349777  0.65177654    -0.13400
C980        C  0.82297513  0.69982760  0.66039299     0.16300
C981        C  0.79974544  0.71602568  0.68402985     0.25800
C982        C  0.78406894  0.69751149  0.71270535    -0.40500
C983        C  0.79165942  0.66236284  0.71692404     0.32700
C984        C  0.81407730  0.64604729  0.69287288     0.14400
F985        F  0.83870428  0.71862999  0.63381160    -0.12900
F986        F  0.77674835  0.64338762  0.74383096    -0.13400
F987        F  0.79293018  0.74993295  0.67927639    -0.15700
F988        F  0.81941902  0.61172194  0.69672763    -0.14200
F989        F  0.88857971  0.63111160  0.69349326    -0.14300
F990        F  0.86910404  0.62552727  0.54362970    -0.15700
C991        C  0.64495094  0.14914871  0.90353609     0.14400
C992        C  0.64170307  0.15126917  0.86522767     0.01400
C993        C  0.61816002  0.12975090  0.84728154     0.16300
C994        C  0.59804362  0.10648343  0.86736590     0.25700
C995        C  0.60126272  0.10418714  0.90585010    -0.40600
C996        C  0.62497762  0.12589168  0.92368635     0.32800
C997        C  0.66094371  0.17771500  0.84430451     0.01400
F998        F  0.61402121  0.13195256  0.81032754    -0.12900
F999        F  0.62829896  0.12550294  0.96076802    -0.13400
C1000       C  0.68504618  0.16842701  0.81753814     0.16300
C1001       C  0.70127911  0.19377084  0.79620315     0.25800
C1002       C  0.69323703  0.22875021  0.80097645    -0.40500
C1003       C  0.66998553  0.23787901  0.82882147     0.32700
C1004       C  0.65406754  0.21262719  0.85020123     0.14400
F1005       F  0.69265802  0.13480865  0.81197329    -0.12900
F1006       F  0.66072919  0.27107746  0.83390906    -0.13400
F1007       F  0.72446205  0.18414139  0.77054098    -0.15700
F1008       F  0.63055334  0.22220989  0.87556991    -0.14200
F1009       F  0.66742956  0.16983477  0.92148619    -0.14300
F1010       F  0.57565801  0.08603749  0.84901028    -0.15700
C1011       C  0.68157856  0.18906421  0.66391419     0.14400
C1012       C  0.64834543  0.17864940  0.67393642     0.01400
C1013       C  0.63359208  0.19251802  0.70581357     0.16300
C1014       C  0.65125204  0.21695396  0.72660515     0.25700
C1015       C  0.68480110  0.22672648  0.71709305    -0.40600
C1016       C  0.69969979  0.21267551  0.68547074     0.32800
C1017       C  0.62871540  0.15411478  0.65073738     0.01400
F1018       F  0.60185516  0.18260825  0.71673571    -0.12900
F1019       F  0.73168189  0.22230162  0.67511532    -0.13400
C1020       C  0.64289143  0.12225435  0.64074698     0.16300
C1021       C  0.62437178  0.09927181  0.61882422     0.25800
C1022       C  0.59102504  0.10731322  0.60746797    -0.40500
C1023       C  0.57662139  0.13881014  0.61773439     0.32700
C1024       C  0.59550296  0.16231199  0.63860934     0.14400
F1025       F  0.67427808  0.11293458  0.65312180    -0.12900
F1026       F  0.54449051  0.14711079  0.60682216    -0.13400
F1027       F  0.63846265  0.06852899  0.60997953    -0.15700
F1028       F  0.58151205  0.19333619  0.64646353    -0.14200
F1029       F  0.69609010  0.17726012  0.63255963    -0.14300
F1030       F  0.63474151  0.23237903  0.75482387    -0.15700
C1031       C  0.35699637  0.14948560  0.60355586     0.14400
C1032       C  0.35910009  0.15044015  0.64200431     0.01400
C1033       C  0.38185670  0.12831938  0.66021207     0.16300
C1034       C  0.40219997  0.10549402  0.64018814     0.25700
C1035       C  0.39985859  0.10424477  0.60158093    -0.40600
C1036       C  0.37714513  0.12665409  0.58351745     0.32800
C1037       C  0.33911431  0.17607209  0.66279045     0.01400
F1038       F  0.38490470  0.12939264  0.69734293    -0.12900
F1039       F  0.37500715  0.12725434  0.54633409    -0.13400
C1040       C  0.31445827  0.16578227  0.68868550     0.16300
C1041       C  0.29678735  0.19043409  0.70919035     0.25800
C1042       C  0.30398031  0.22569779  0.70452242    -0.40500
C1043       C  0.32771869  0.23581432  0.67745271     0.32700
C1044       C  0.34515347  0.21124493  0.65695650     0.14400
F1045       F  0.30764560  0.13188592  0.69417372    -0.12900
F1046       F  0.33591461  0.26938052  0.67229802    -0.13400
F1047       F  0.27307010  0.17988436  0.73402689    -0.15700
F1048       F  0.36921851  0.22179896  0.63248480    -0.14200
F1049       F  0.33535022  0.17081019  0.58537603    -0.14300
F1050       F  0.42376506  0.08432212  0.65867507    -0.15700
C1051       C  0.36439899  0.19005440  0.79975911     0.14400
C1052       C  0.34941978  0.17402309  0.83055249     0.01400
C1053       C  0.31536273  0.18214740  0.83956742     0.16300
C1054       C  0.29688353  0.20586879  0.81839394     0.25700
C1055       C  0.31207478  0.22216469  0.78800616    -0.40600
C1056       C  0.34623173  0.21440824  0.77926316     0.32800
C1057       C  0.36967845  0.14976555  0.85374567     0.01400
F1058       F  0.30030999  0.16803108  0.86965318    -0.12900
F1059       F  0.36266968  0.23156082  0.75194294    -0.13400
C1060       C  0.40211036  0.15941622  0.86729075     0.16300
C1061       C  0.42162488  0.13632437  0.88814211     0.25800
C1062       C  0.40865182  0.10363268  0.89694085    -0.40500
C1063       C  0.37599258  0.09419239  0.88435123     0.32700
C1064       C  0.35690292  0.11679887  0.86246097     0.14400
F1065       F  0.41465335  0.19150830  0.86095948    -0.12900
F1066       F  0.36306481  0.06254758  0.89220424    -0.13400
F1067       F  0.45284121  0.14624006  0.90063142    -0.15700
F1068       F  0.32632876  0.10607155  0.84894876    -0.14200
F1069       F  0.39683291  0.18228379  0.78956261    -0.14300
F1070       F  0.26419775  0.21335134  0.82788898    -0.15700
C1071       C  0.63693316  0.81120461  0.70069243     0.14400
C1072       C  0.65436756  0.83248095  0.67559139     0.01400
C1073       C  0.68982658  0.82817700  0.67092531     0.16300
C1074       C  0.70734979  0.80270518  0.69060900     0.25700
C1075       C  0.68992540  0.78179718  0.71594314    -0.40600
C1076       C  0.65456081  0.78636035  0.72087647     0.32800
C1077       C  0.63522424  0.85848704  0.65388040     0.01400
F1078       F  0.70758347  0.84904356  0.64778533    -0.12900
F1079       F  0.63680123  0.76613848  0.74463047    -0.13400
C1080       C  0.61439132  0.88272378  0.67159359     0.16300
C1081       C  0.59439621  0.90559312  0.65112731     0.25800
C1082       C  0.59515176  0.90495487  0.61247856    -0.40500
C1083       C  0.61696363  0.88160532  0.59479863     0.32700
C1084       C  0.63654064  0.85835139  0.61528401     0.14400
F1085       F  0.61365027  0.88446399  0.70882930    -0.12900
F1086       F  0.61847669  0.88048387  0.55757957    -0.13400
F1087       F  0.57510025  0.92897319  0.66925939    -0.15700
F1088       F  0.65587471  0.83486035  0.59734124    -0.14200
F1089       F  0.60256023  0.81383560  0.70496756    -0.14300
F1090       F  0.74152090  0.79913248  0.68577122    -0.15700
C1091       C  0.68152943  0.83770062  0.81639142     0.14400
C1092       C  0.65768586  0.82732388  0.84302930     0.01400
C1093       C  0.65196630  0.79218458  0.84904555     0.16300
C1094       C  0.66867057  0.76763691  0.82774057     0.25700
C1095       C  0.69152953  0.77774898  0.79967024    -0.40600
C1096       C  0.69864608  0.81313860  0.79520794     0.32800
C1097       C  0.63824010  0.85289592  0.86443789     0.01400
F1098       F  0.62987991  0.78162724  0.87557895    -0.12900
F1099       F  0.72236596  0.82400006  0.77055140    -0.13400
C1100       C  0.60308849  0.85710212  0.85825486     0.16300
C1101       C  0.58419733  0.88024256  0.87940443     0.25800
C1102       C  0.60008976  0.89941174  0.90744858    -0.40500
C1103       C  0.63548352  0.89509545  0.91346744     0.32700
C1104       C  0.65432463  0.87209860  0.89204997     0.14400
F1105       F  0.58709424  0.83877970  0.83156242    -0.12900
F1106       F  0.65227041  0.91360507  0.93937265    -0.13400
F1107       F  0.55020345  0.88346331  0.87275613    -0.15700
F1108       F  0.68826706  0.86819759  0.89858488    -0.14200
F1109       F  0.68769993  0.87164947  0.81041957    -0.14300
F1110       F  0.66143265  0.73407589  0.83422604    -0.15700
C1111       C  0.36947276  0.84750034  0.90252519     0.14400
C1112       C  0.36849685  0.84704392  0.86393090     0.01400
C1113       C  0.38770134  0.87155124  0.84422978     0.16300
C1114       C  0.40785880  0.89581183  0.86271919     0.25700
C1115       C  0.40896997  0.89623385  0.90133355    -0.40600
C1116       C  0.38928372  0.87207593  0.92106713     0.32800
C1117       C  0.34852577  0.82038412  0.84399766     0.01400
F1118       F  0.38736655  0.87161252  0.80694405    -0.12900
F1119       F  0.38975765  0.87182394  0.95835240    -0.13400
C1120       C  0.32232779  0.82977788  0.81951885     0.16300
C1121       C  0.30577786  0.80481461  0.79816777     0.25800
C1122       C  0.31546145  0.77003688  0.80052157    -0.40500
C1123       C  0.34053912  0.76051190  0.82638157     0.32700
C1124       C  0.35690314  0.78544960  0.84784522     0.14400
F1125       F  0.31302346  0.86323916  0.81605488    -0.12900
F1126       F  0.35094431  0.72737643  0.82929899    -0.13400
F1127       F  0.28057021  0.81468067  0.77481050    -0.15700
F1128       F  0.38229490  0.77565676  0.87102365    -0.14200
F1129       F  0.35098957  0.82429630  0.92224648    -0.14300
F1130       F  0.42544177  0.91952884  0.84277627    -0.15700
C1131       C  0.38488244  0.88040444  0.66410699     0.14400
C1132       C  0.37043601  0.85076329  0.64845178     0.01400
C1133       C  0.37413079  0.84498751  0.61055397     0.16300
C1134       C  0.39191447  0.86867871  0.58862739     0.25700
C1135       C  0.40663069  0.89814431  0.60443390    -0.40600
C1136       C  0.40303371  0.90378027  0.64234980     0.32800
C1137       C  0.35226688  0.82559260  0.67197532     0.01400
F1138       F  0.36128358  0.81597918  0.59501208    -0.12900
F1139       F  0.41623265  0.93247427  0.65821358    -0.13400
C1140       C  0.31778550  0.81740852  0.66541644     0.16300
C1141       C  0.30091103  0.79330119  0.68758533     0.25800
C1142       C  0.31825004  0.77705142  0.71659394    -0.40500
C1143       C  0.35286384  0.78508937  0.72292057     0.32700
C1144       C  0.36958776  0.80941319  0.70103549     0.14400
F1145       F  0.30049893  0.83278769  0.63754536    -0.12900
F1146       F  0.37119804  0.76771947  0.74857442    -0.13400
F1147       F  0.26772765  0.78541122  0.68044430    -0.15700
F1148       F  0.40320940  0.81607713  0.70716369    -0.14200
F1149       F  0.38093604  0.88694223  0.70046341    -0.14300
F1150       F  0.39573269  0.86227709  0.55223485    -0.15700
C1151       C  0.38963771  0.64114471  0.81390056     0.14400
C1152       C  0.37260336  0.62042926  0.83995026     0.01400
C1153       C  0.33693897  0.61703574  0.83801271     0.16300
C1154       C  0.31843939  0.63569166  0.81199552     0.25700
C1155       C  0.33520294  0.65805565  0.78742532    -0.40600
C1156       C  0.37103682  0.65987854  0.78778808     0.32800
C1157       C  0.39172056  0.60412505  0.87046892     0.01400
F1158       F  0.31980345  0.59723312  0.86272752    -0.12900
F1159       F  0.38781477  0.68161489  0.76471520    -0.13400
C1160       C  0.41074561  0.62454322  0.89488032     0.16300
C1161       C  0.43019594  0.60930900  0.92271240     0.25800
C1162       C  0.43080559  0.57327253  0.92686746    -0.40500
C1163       C  0.40974787  0.55307429  0.90390909     0.32700
C1164       C  0.39068651  0.56835193  0.87577297     0.14400
F1165       F  0.41062388  0.65935063  0.89158497    -0.12900
F1166       F  0.40883356  0.51834716  0.90727277    -0.13400
F1167       F  0.44893558  0.62986290  0.94517021    -0.15700
F1168       F  0.37234549  0.54802173  0.85269950    -0.14200
F1169       F  0.42422439  0.64404949  0.81457351    -0.14300
F1170       F  0.28390393  0.63282108  0.81173095    -0.15700
C1171       C  0.42754989  0.62419155  0.61563305     0.14400
C1172       C  0.39263950  0.61622663  0.61811895     0.01400
C1173       C  0.37849243  0.59150883  0.59432935     0.16300
C1174       C  0.39931571  0.57442913  0.56895417     0.25700
C1175       C  0.43432492  0.58247553  0.56660013    -0.40600
C1176       C  0.44809471  0.60779693  0.59001249     0.32800
C1177       C  0.37159294  0.63395183  0.64586640     0.01400
F1178       F  0.34456013  0.58415420  0.59552315    -0.12900
F1179       F  0.48199063  0.61551838  0.58963338    -0.13400
C1180       C  0.37084499  0.67001958  0.64645904     0.16300
C1181       C  0.35375927  0.68721135  0.67437289     0.25800
C1182       C  0.33627902  0.66876869  0.70190285    -0.40500
C1183       C  0.33634034  0.63258603  0.70091799     0.32700
C1184       C  0.35422584  0.61530038  0.67329095     0.14400
F1185       F  0.38668889  0.68868948  0.61980477    -0.12900
F1186       F  0.31806927  0.61398387  0.72569993    -0.13400
F1187       F  0.35449825  0.72207782  0.67439662    -0.15700
F1188       F  0.35499904  0.58039184  0.67358416    -0.14200
F1189       F  0.44210612  0.64715167  0.63901099    -0.14300
F1190       F  0.38531997  0.55024218  0.54666783    -0.15700
C1191       C  0.66522514  0.60811524  0.81180997     0.14400
C1192       C  0.63166442  0.61728702  0.82105889     0.01400
C1193       C  0.61881163  0.64936300  0.80990314     0.16300
C1194       C  0.63984819  0.67257718  0.79129462     0.25700
C1195       C  0.67417636  0.66448020  0.78478467    -0.40600
C1196       C  0.68637985  0.63160114  0.79375968     0.32800
C1197       C  0.61146759  0.59534874  0.84592121     0.01400
F1198       F  0.58647964  0.65888813  0.81866663    -0.12900
F1199       F  0.71875603  0.62220362  0.78529805    -0.13400
C1200       C  0.62427407  0.58800626  0.88105019     0.16300
C1201       C  0.60382523  0.57142040  0.90684353     0.25800
C1202       C  0.56991086  0.56229536  0.89813362    -0.40500
C1203       C  0.55770221  0.56799807  0.86222795     0.32700
C1204       C  0.57842636  0.58442754  0.83629151     0.14400
F1205       F  0.65600097  0.59871204  0.89115099    -0.12900
F1206       F  0.52527396  0.55923497  0.85264049    -0.13400
F1207       F  0.61705150  0.56527908  0.94072336    -0.15700
F1208       F  0.56594105  0.59059775  0.80210868    -0.14200
F1209       F  0.67767789  0.57670021  0.82108963    -0.14300
F1210       F  0.62687719  0.70319847  0.78015803    -0.15700
C1211       C  0.58238871  0.59537954  0.65427995     0.14400
C1212       C  0.61616887  0.60213119  0.64341672     0.01400
C1213       C  0.62829161  0.58921566  0.61005662     0.16300
C1214       C  0.60620023  0.57190920  0.58646194     0.25700
C1215       C  0.57151454  0.56741228  0.59588421    -0.40600
C1216       C  0.56014690  0.57797174  0.63072573     0.32800
C1217       C  0.63784656  0.62541174  0.66499615     0.01400
F1218       F  0.66104768  0.59515237  0.59936503    -0.12900
F1219       F  0.52718428  0.57316145  0.64126608    -0.13400
C1220       C  0.66875303  0.61385876  0.67995626     0.16300
C1221       C  0.68967974  0.63657311  0.69927835     0.25800
C1222       C  0.67972935  0.67093627  0.70426291    -0.40500
C1223       C  0.64934057  0.68266999  0.68829964     0.32700
C1224       C  0.62847525  0.66003961  0.66878024     0.14400
F1225       F  0.67832957  0.58049840  0.67631551    -0.12900
F1226       F  0.63945819  0.71579133  0.69229503    -0.13400
F1227       F  0.71948975  0.62486002  0.71327074    -0.15700
F1228       F  0.59921207  0.67191694  0.65328120    -0.14200
F1229       F  0.57072013  0.60672221  0.68717748    -0.14300
F1230       F  0.61863192  0.56047823  0.55391493    -0.15700
C1231       C  0.59190048  0.37469290  0.90173073     0.14400
C1232       C  0.61617612  0.39295223  0.88093927     0.01400
C1233       C  0.62027364  0.42842465  0.88634379     0.16300
C1234       C  0.59875998  0.44585622  0.91039227     0.25700
C1235       C  0.57261697  0.42803382  0.92925697    -0.40600
C1236       C  0.57023708  0.39205791  0.92572332     0.32800
C1237       C  0.63582743  0.37526919  0.85220206     0.01400
F1238       F  0.64387415  0.44651592  0.86682993    -0.12900
F1239       F  0.54572327  0.37385980  0.94374743    -0.13400
C1240       C  0.61864887  0.35845075  0.82347434     0.16300
C1241       C  0.63697224  0.34019582  0.79714235     0.25800
C1242       C  0.67287398  0.33929288  0.79860189    -0.40500
C1243       C  0.68999259  0.35712019  0.82679029     0.32700
C1244       C  0.67161482  0.37480831  0.85346428     0.14400
F1245       F  0.58400856  0.35931644  0.82128779    -0.12900
F1246       F  0.72456836  0.35696679  0.82905198    -0.13400
F1247       F  0.61945967  0.32170537  0.77174852    -0.15700
F1248       F  0.68872220  0.39051371  0.88125103    -0.14200
F1249       F  0.58852953  0.34010401  0.89791585    -0.14300
F1250       F  0.60276439  0.48039657  0.91410111    -0.15700
C1251       C  0.62387508  0.34137280  0.66513757     0.14400
C1252       C  0.62876798  0.37721184  0.66346289     0.01400
C1253       C  0.65205921  0.39277922  0.68792623     0.16300
C1254       C  0.67023206  0.37277856  0.71323909     0.25700
C1255       C  0.66624766  0.33686581  0.71362942    -0.40600
C1256       C  0.64293843  0.32138252  0.68943631     0.32800
C1257       C  0.60900624  0.39805130  0.63666792     0.01400
F1258       F  0.65822070  0.42715089  0.68640750    -0.12900
F1259       F  0.63842339  0.28677150  0.68946652    -0.13400
C1260       C  0.59051328  0.42689031  0.64848541     0.16300
C1261       C  0.56992796  0.44500808  0.62392542     0.25800
C1262       C  0.56630662  0.43386589  0.58739856    -0.40500
C1263       C  0.58518507  0.40551127  0.57522908     0.32700
C1264       C  0.60695902  0.38818491  0.59947557     0.14400
F1265       F  0.59092726  0.43658333  0.68426795    -0.12900
F1266       F  0.58280536  0.39483328  0.53985070    -0.13400
F1267       F  0.55196003  0.47238415  0.63649913    -0.15700
F1268       F  0.62596117  0.36165958  0.58664812    -0.14200
F1269       F  0.60033851  0.32563910  0.64343553    -0.14300
F1270       F  0.69325354  0.38823614  0.73576191    -0.15700
C1271       C  0.40826793  0.42626474  0.84366473     0.14400
C1272       C  0.38700715  0.40140692  0.85985078     0.01400
C1273       C  0.38665923  0.39753574  0.89814493     0.16300
C1274       C  0.40836090  0.41731701  0.92003134     0.25700
C1275       C  0.43079497  0.44143378  0.90386775    -0.40600
C1276       C  0.42994221  0.44618834  0.86540671     0.32800
C1277       C  0.36637752  0.37836082  0.83669554     0.01400
F1278       F  0.36557830  0.37414029  0.91429277    -0.12900
F1279       F  0.45059494  0.46951615  0.84851807    -0.13400
C1280       C  0.37179170  0.34267713  0.83811590     0.16300
C1281       C  0.35220502  0.32064544  0.81643004     0.25800
C1282       C  0.32751873  0.33408655  0.79251211    -0.40500
C1283       C  0.32225389  0.36981571  0.79087558     0.32700
C1284       C  0.34151370  0.39182132  0.81293926     0.14400
F1285       F  0.39649403  0.32928436  0.86006247    -0.12900
F1286       F  0.29777990  0.38330595  0.76876671    -0.13400
F1287       F  0.35791526  0.28626814  0.81810222    -0.15700
F1288       F  0.33543782  0.42617832  0.81173070    -0.14200
F1289       F  0.40908788  0.43023829  0.80660322    -0.14300
F1290       F  0.40809902  0.41189811  0.95687606    -0.15700
C1291       C  0.37949615  0.35920792  0.69116610     0.14400
C1292       C  0.36352473  0.38206140  0.66664517     0.01400
C1293       C  0.32775002  0.38133020  0.66312971     0.16300
C1294       C  0.30825009  0.35833229  0.68404126     0.25700
C1295       C  0.32414191  0.33623088  0.70935209    -0.40600
C1296       C  0.35998641  0.33645717  0.71228018     0.32800
C1297       C  0.38435314  0.40589069  0.64406714     0.01400
F1298       F  0.31164630  0.40332898  0.63988139    -0.12900
F1299       F  0.37620407  0.31384074  0.73473453    -0.13400
C1300       C  0.38196048  0.40516648  0.60561902     0.16300
C1301       C  0.40304062  0.42615103  0.58413345     0.25800
C1302       C  0.42738471  0.44803856  0.60070989    -0.40500
C1303       C  0.42912798  0.44923454  0.63939204     0.32700
C1304       C  0.40766713  0.42851545  0.66077673     0.14400
F1305       F  0.36018441  0.38298600  0.58873282    -0.12900
F1306       F  0.45235219  0.46952877  0.65674738    -0.13400
F1307       F  0.40015520  0.42410714  0.54704721    -0.15700
F1308       F  0.40994898  0.43024749  0.69794078    -0.14200
F1309       F  0.41409775  0.35830986  0.69397423    -0.14300
F1310       F  0.27380853  0.35825157  0.68003756    -0.15700
loop_ 
_geom_bond_atom_site_label_1 
_geom_bond_atom_site_label_2 
_geom_bond_distance 
_geom_bond_site_symmetry_2 
_ccdc_geom_bond_type 
O1            C9   1.240       .  A
O1          Co21   1.951       .  S
O2           C10   1.266       .  A
O2          Co22   2.002       .  S
O3           C11   1.252       .  A
O3          Co23   1.995       .  S
O4           C12   1.264       .  A
O4          Co24   1.964   1_554  S
O5           C11   1.240       .  A
O5          Co22   1.947       .  S
O6           C12   1.272       .  A
O6          Co21   2.009       .  S
O7           C10   1.260       .  A
O7         Co679   1.966       .  S
O8            C9   1.252       .  A
O8         Co678   1.999       .  S
C9          C607   1.472       .  S
C10         C547   1.471       .  S
C11         C580   1.471       .  S
C12         C560   1.478       .  S
O13          C26   1.259       .  A
O13         Co21   1.983       .  S
O14          C27   1.266       .  A
O14         Co22   1.876       .  S
O15          C28   1.300       .  A
O15        Co678   2.083       .  S
O16          C29   1.269       .  A
O16        Co679   2.013       .  S
O17          C29   1.259       .  A
O17         Co22   1.979       .  S
O18          C28   1.270       .  A
O18         Co21   1.884       .  S
O19          C26   1.263       .  A
O19         Co24   1.987   1_554  S
O20          C27   1.299       .  A
O20         Co23   2.082       .  S
Co21         O25   1.917       .  S
Co22        O680   1.904       .  S
Co23        O663   2.003       .  S
Co23        O670   2.076       .  S
Co23        O680   2.247       .  S
Co24        O662   1.963       .  S
Co24        O671   2.019       .  S
Co24         O25   2.073   1_556  S
O25        Co677   1.907   1_554  S
O25        Co678   2.245       .  S
C26         C520   1.473       .  S
C27         C620   1.482       .  S
C28         C647   1.486       .  S
C29         C507   1.483       .  S
C30          C67   1.461       .  S
C30         C427   1.478       .  S
C30          N48   1.350       .  A
N31          N48   1.324       .  A
N31          N53   1.320       .  A
N31         Co68   2.081   1_565  S
C32          C70   1.462       .  S
C32          N57   1.339       .  A
C32          H77   1.081       .  S
H33          C74   1.081       .  S
C34          C38   1.466       .  S
C34          N58   1.344       .  A
C34          H63   1.081       .  S
Co35         N53   2.086   1_545  S
Co35         N43   2.075   1_545  S
Co35         N75   2.077       .  S
Co35         N51   2.086       .  S
Co35        Cl79   2.453       .  S
N36          C74   1.343       .  A
N36          N43   1.320       .  A
N36         Co37   2.089   1_564  S
Co37         N57   2.082   1_556  S
Co37        N695   2.081   1_545  S
Co37        N699   2.089       .  S
Co37        Cl79   2.450   1_556  S
C38         C460   1.483       .  S
C38          N76   1.349       .  A
N39          N46   1.321       .  A
N39          N69   1.326       .  A
N39         Co72   2.094   1_565  S
N40          N58   1.320       .  A
N40          N76   1.324       .  A
N40        Co692   2.079   1_565  S
N41          C70   1.352       .  A
N41          N51   1.325       .  A
H42          C67   1.081       .  S
N43          N64   1.322       .  A
N44          N62   1.322       .  A
N44          N49   1.326       .  A
N44        Co692   2.091       .  S
C45          C73   1.462       .  S
C45         C407   1.478       .  S
C45          N49   1.350       .  A
N46          C61   1.340       .  A
N46        Co723   2.086   1_565  S
C47          C50   1.457       .  S
C47          N75   1.340       .  A
C47          H81   1.082       .  S
C50         C367   1.470       .  S
C50          N71   1.349       .  A
N51          N57   1.319       .  A
N52          C78   1.337       .  A
N52          N54   1.320       .  A
N52        Co723   2.075       .  S
N53          C67   1.341       .  A
N54          N82   1.327       .  A
N54         Co72   2.098       .  S
H55          C78   1.081       .  S
H56          C73   1.081       .  S
N58         Co72   2.099   1_565  S
N59          N71   1.324       .  A
N59          N75   1.320       .  A
N59         Co68   2.086       .  S
C60          C74   1.462       .  S
C60         C480   1.473       .  S
C60          N64   1.347       .  A
C61          C80   1.464       .  S
C61          H65   1.081       .  S
N62          C73   1.343       .  A
N62         Co72   2.097       .  S
C66          C78   1.458       .  S
C66         C340   1.484       .  S
C66          N82   1.355       .  A
Co68        N701   2.084   1_544  S
Co68        N707   2.077   1_554  S
Co68        Cl79   2.449       .  S
N69          C80   1.353       .  A
C70         C380   1.483       .  S
Co72       Cl734   2.458       .  S
Cl79       Co727   2.456   1_554  S
C80         C447   1.487       .  S
C83         C120   1.462       .  S
C83         C267   1.478       .  S
C83         N101   1.350       .  A
N84         N101   1.323       .  A
N84         N106   1.319       .  A
N84        Co121   2.079       .  S
C85         C123   1.458       .  S
C85         N110   1.337       .  A
C85         H130   1.081       .  S
H86         C127   1.082       .  S
C87          C91   1.468       .  S
C87         N111   1.343       .  A
C87         H116   1.081       .  S
Co88        N106   2.081       .  S
Co88         N96   2.084       .  S
Co88        N128   2.077   1_655  S
Co88        N104   2.088   1_655  S
Co88       Cl132   2.452   1_655  S
N89         C127   1.344       .  A
N89          N96   1.320       .  A
N89         Co90   2.088   1_654  S
Co90        N110   2.071   1_556  S
Co90        N748   2.065   1_455  S
Co90        N752   2.086       .  S
Co90       Cl132   2.446   1_556  S
C91         C307   1.479       .  S
C91         N129   1.346       .  A
N92          N99   1.321       .  A
N92         N122   1.325       .  A
N92        Co125   2.084   1_655  S
N93         N111   1.319       .  A
N93         N129   1.319       .  A
N93        Co745   2.065   1_655  S
N94         C123   1.352       .  A
N94         N104   1.326       .  A
H95         C120   1.081       .  S
N96         N117   1.323       .  A
N97         N115   1.321       .  A
N97         N102   1.324       .  A
N97        Co745   2.087       .  S
C98         C126   1.455       .  S
C98         C200   1.467       .  S
C98         N102   1.350       .  A
N99         C114   1.343       .  A
N99        Co776   2.096   1_655  S
C100        C103   1.458       .  S
C100        N128   1.338       .  A
C100        H134   1.082       .  S
C103        C240   1.477       .  S
C103        N124   1.352       .  A
N104        N110   1.318       .  A
N105        C131   1.340       .  A
N105        N107   1.318       .  A
N105       Co776   2.079       .  S
N106        C120   1.339       .  A
N107        N135   1.324       .  A
N107       Co125   2.086       .  S
H108        C131   1.080       .  S
H109        C126   1.082       .  S
N111       Co125   2.091   1_655  S
N112        N124   1.326       .  A
N112        N128   1.321       .  A
N112       Co121   2.094   1_455  S
C113        C127   1.463       .  S
C113        C320   1.480       .  S
C113        N117   1.350       .  A
C114        C133   1.464       .  S
C114        H118   1.081       .  S
N115        C126   1.338       .  A
N115       Co125   2.076       .  S
C119        C131   1.464       .  S
C119        C227   1.487       .  S
C119        N135   1.352       .  A
Co121       N754   2.095   1_554  S
Co121       N760   2.074   1_654  S
Co121      Cl132   2.445   1_655  S
N122        C133   1.350       .  A
C123        C180   1.477       .  S
Co125      Cl787   2.454       .  S
Cl132      Co780   2.454   1_554  S
C133        C280   1.483       .  S
C136        H137   1.111       .  S
C136        C142   1.542       .  S
C136        C141   1.538       .  S
C136        C140   1.535       .  S
C138        H139   1.111       .  S
C138        C144   1.538       .  S
C138        C143   1.536       .  S
C138        C145   1.533       .  S
C140        C143   1.372       .  D
C140        C640   1.486       .  S
C141        C144   1.378       .  D
C141        C247   1.485       .  S
C142        C145   1.378       .  D
C142        C387   1.490       .  S
C143        C627   1.475       .  S
C144        C220   1.496       .  S
C145        C400   1.491       .  S
C146        H147   1.111       .  S
C146        C152   1.540       .  S
C146        C151   1.536       .  S
C146        C150   1.533       .  S
C148        H149   1.111       .  S
C148        C154   1.537       .  S
C148        C153   1.538       .  S
C148        C155   1.531       .  S
C150        C153   1.373       .  D
C150        C600   1.480       .  S
C151        C154   1.379       .  D
C151        C360   1.488       .  S
C152        C155   1.377       .  D
C152        C260   1.491       .  S
C153        C587   1.478       .  S
C154        C347   1.495       .  S
C155        C287   1.487       .  S
C156        H157   1.111       .  S
C156        C162   1.534       .  S
C156        C161   1.533       .  S
C156        C160   1.536       .  S
C158        H159   1.111       .  S
C158        C164   1.538       .  S
C158        C163   1.538       .  S
C158        C165   1.533       .  S
C160        C163   1.375       .  D
C160        C527   1.479       .  S
C161        C164   1.377       .  D
C161        C487   1.483       .  S
C162        C165   1.375       .  D
C162        C187   1.490       .  S
C163        C500   1.481       .  S
C164        C467   1.495       .  S
C165        C207   1.481       .  S
C166        H167   1.111       .  S
C166        C172   1.543       .  S
C166        C171   1.543       .  S
C166        C170   1.528       .  S
C168        H169   1.106       .  S
C168        C174   1.540       .  S
C168        C173   1.541       .  S
C168        C175   1.535       .  S
C170        C173   1.363       .  D
C170        C567   1.475       .  S
C171        C174   1.384       .  D
C171        C327   1.492       .  S
C172        C175   1.378       .  D
C172        C420   1.486       .  S
C173        C540   1.471       .  S
C174        C300   1.499       .  S
C175        C440   1.503       .  S
C176        C177   1.407       .  A
C176        C181   1.400       .  A
C176        F194   1.358       .  S
C177        C182   1.479       .  S
C177        C178   1.402       .  A
C178        C179   1.397       .  A
C178        F183   1.358       .  S
C179        C180   1.409       .  A
C179        F195   1.357       .  S
C180        C181   1.405       .  A
C181        F184   1.358       .  S
C182        C185   1.402       .  A
C182        C189   1.406       .  A
C185        C186   1.394       .  A
C185        F190   1.358       .  S
C186        C187   1.409       .  A
C186        F192   1.355       .  S
C187        C188   1.407       .  A
C188        C189   1.401       .  A
C188        F191   1.357       .  S
C189        F193   1.357       .  S
C196        C197   1.409       .  A
C196        C201   1.397       .  A
C196        F214   1.358       .  S
C197        C202   1.482       .  S
C197        C198   1.407       .  A
C198        C199   1.396       .  A
C198        F203   1.358       .  S
C199        C200   1.403       .  A
C199        F215   1.358       .  S
C200        C201   1.403       .  A
C201        F204   1.358       .  S
C202        C205   1.407       .  A
C202        C209   1.408       .  A
C205        C206   1.395       .  A
C205        F210   1.358       .  S
C206        C207   1.408       .  A
C206        F212   1.357       .  S
C207        C208   1.402       .  A
C208        C209   1.396       .  A
C208        F211   1.358       .  S
C209        F213   1.358       .  S
C216        C217   1.404       .  A
C216        C221   1.402       .  A
C216        F234   1.357       .  S
C217        C222   1.476       .  S
C217        C218   1.400       .  A
C218        C219   1.394       .  A
C218        F223   1.358       .  S
C219        C220   1.411       .  A
C219        F235   1.354       .  S
C220        C221   1.410       .  A
C221        F224   1.357       .  S
C222        C225   1.402       .  A
C222        C229   1.402       .  A
C225        C226   1.399       .  A
C225        F230   1.358       .  S
C226        C227   1.411       .  A
C226        F232   1.356       .  S
C227        C228   1.412       .  A
C228        C229   1.399       .  A
C228        F231   1.358       .  S
C229        F233   1.358       .  S
C236        C237   1.406       .  A
C236        C241   1.399       .  A
C236        F254   1.358       .  S
C237        C242   1.485       .  S
C237        C238   1.408       .  A
C238        C239   1.400       .  A
C238        F243   1.358       .  S
C239        C240   1.404       .  A
C239        F255   1.358       .  S
C240        C241   1.407       .  A
C241        F244   1.358       .  S
C242        C245   1.408       .  A
C242        C249   1.406       .  A
C245        C246   1.401       .  A
C245        F250   1.358       .  S
C246        C247   1.402       .  A
C246        F252   1.357       .  S
C247        C248   1.407       .  A
C248        C249   1.397       .  A
C248        F251   1.357       .  S
C249        F253   1.358       .  S
C256        C257   1.404       .  A
C256        C261   1.401       .  A
C256        F274   1.357       .  S
C257        C262   1.474       .  S
C257        C258   1.400       .  A
C258        C259   1.393       .  A
C258        F263   1.358       .  S
C259        C260   1.410       .  A
C259        F275   1.353       .  S
C260        C261   1.409       .  A
C261        F264   1.357       .  S
C262        C265   1.403       .  A
C262        C269   1.403       .  A
C265        C266   1.397       .  A
C265        F270   1.358       .  S
C266        C267   1.407       .  A
C266        F272   1.358       .  S
C267        C268   1.410       .  A
C268        C269   1.398       .  A
C268        F271   1.357       .  S
C269        F273   1.358       .  S
C276        C277   1.408       .  A
C276        C281   1.401       .  A
C276        F294   1.358       .  S
C277        C282   1.489       .  S
C277        C278   1.407       .  A
C278        C279   1.401       .  A
C278        F283   1.358       .  S
C279        C280   1.409       .  A
C279        F295   1.358       .  S
C280        C281   1.407       .  A
C281        F284   1.357       .  S
C282        C285   1.407       .  A
C282        C289   1.409       .  A
C285        C286   1.399       .  A
C285        F290   1.358       .  S
C286        C287   1.407       .  A
C286        F292   1.357       .  S
C287        C288   1.403       .  A
C288        C289   1.401       .  A
C288        F291   1.358       .  S
C289        F293   1.358       .  S
C296        C297   1.403       .  A
C296        C301   1.402       .  A
C296        F314   1.357       .  S
C297        C302   1.472       .  S
C297        C298   1.397       .  A
C298        C299   1.390       .  A
C298        F303   1.359       .  S
C299        C300   1.414       .  A
C299        F315   1.353       .  S
C300        C301   1.412       .  A
C301        F304   1.357       .  S
C302        C305   1.401       .  A
C302        C309   1.403       .  A
C305        C306   1.395       .  A
C305        F310   1.358       .  S
C306        C307   1.410       .  A
C306        F312   1.358       .  S
C307        C308   1.409       .  A
C308        C309   1.400       .  A
C308        F311   1.356       .  S
C309        F313   1.358       .  S
C316        C317   1.407       .  A
C316        C321   1.396       .  A
C316        F334   1.358       .  S
C317        C322   1.490       .  S
C317        C318   1.410       .  A
C318        C319   1.404       .  A
C318        F323   1.358       .  S
C319        C320   1.407       .  A
C319        F335   1.358       .  S
C320        C321   1.406       .  A
C321        F324   1.358       .  S
C322        C325   1.409       .  A
C322        C329   1.406       .  A
C325        C326   1.404       .  A
C325        F330   1.357       .  S
C326        C327   1.406       .  A
C326        F332   1.356       .  S
C327        C328   1.407       .  A
C328        C329   1.395       .  A
C328        F331   1.356       .  S
C329        F333   1.358       .  S
C336        C337   1.404       .  A
C336        C341   1.398       .  A
C336        F354   1.358       .  S
C337        C342   1.483       .  S
C337        C338   1.406       .  A
C338        C339   1.401       .  A
C338        F343   1.358       .  S
C339        C340   1.409       .  A
C339        F355   1.357       .  S
C340        C341   1.410       .  A
C341        F344   1.357       .  S
C342        C345   1.407       .  A
C342        C349   1.402       .  A
C345        C346   1.403       .  A
C345        F350   1.357       .  S
C346        C347   1.409       .  A
C346        F352   1.357       .  S
C347        C348   1.410       .  A
C348        C349   1.395       .  A
C348        F351   1.355       .  S
C349        F353   1.358       .  S
C356        C357   1.408       .  A
C356        C361   1.399       .  A
C356        F374   1.358       .  S
C357        C362   1.485       .  S
C357        C358   1.406       .  A
C358        C359   1.396       .  A
C358        F363   1.358       .  S
C359        C360   1.409       .  A
C359        F375   1.357       .  S
C360        C361   1.405       .  A
C361        F364   1.358       .  S
C362        C365   1.408       .  A
C362        C369   1.409       .  A
C365        C366   1.399       .  A
C365        F370   1.358       .  S
C366        C367   1.404       .  A
C366        F372   1.358       .  S
C367        C368   1.402       .  A
C368        C369   1.398       .  A
C368        F371   1.358       .  S
C369        F373   1.358       .  S
C376        C377   1.403       .  A
C376        C381   1.398       .  A
C376        F394   1.358       .  S
C377        C382   1.479       .  S
C377        C378   1.404       .  A
C378        C379   1.400       .  A
C378        F383   1.358       .  S
C379        C380   1.410       .  A
C379        F395   1.358       .  S
C380        C381   1.409       .  A
C381        F384   1.357       .  S
C382        C385   1.406       .  A
C382        C389   1.402       .  A
C385        C386   1.402       .  A
C385        F390   1.358       .  S
C386        C387   1.408       .  A
C386        F392   1.358       .  S
C387        C388   1.409       .  A
C388        C389   1.395       .  A
C388        F391   1.355       .  S
C389        F393   1.358       .  S
C396        C397   1.409       .  A
C396        C401   1.400       .  A
C396        F414   1.358       .  S
C397        C402   1.494       .  S
C397        C398   1.409       .  A
C398        C399   1.403       .  A
C398        F403   1.358       .  S
C399        C400   1.405       .  A
C399        F415   1.358       .  S
C400        C401   1.407       .  A
C401        F404   1.357       .  S
C402        C405   1.410       .  A
C402        C409   1.409       .  A
C405        C406   1.402       .  A
C405        F410   1.358       .  S
C406        C407   1.402       .  A
C406        F412   1.358       .  S
C407        C408   1.406       .  A
C408        C409   1.404       .  A
C408        F411   1.358       .  S
C409        F413   1.358       .  S
C416        C417   1.405       .  A
C416        C421   1.395       .  A
C416        F434   1.358       .  S
C417        C422   1.485       .  S
C417        C418   1.409       .  A
C418        C419   1.401       .  A
C418        F423   1.357       .  S
C419        C420   1.402       .  A
C419        F435   1.356       .  S
C420        C421   1.408       .  A
C421        F424   1.357       .  S
C422        C425   1.407       .  A
C422        C429   1.406       .  A
C425        C426   1.399       .  A
C425        F430   1.358       .  S
C426        C427   1.407       .  A
C426        F432   1.357       .  S
C427        C428   1.406       .  A
C428        C429   1.399       .  A
C428        F431   1.358       .  S
C429        F433   1.358       .  S
C436        C437   1.404       .  A
C436        C441   1.403       .  A
C436        F454   1.357       .  S
C437        C442   1.480       .  S
C437        C438   1.400       .  A
C438        C439   1.396       .  A
C438        F443   1.358       .  S
C439        C440   1.412       .  A
C439        F455   1.353       .  S
C440        C441   1.412       .  A
C441        F444   1.357       .  S
C442        C445   1.404       .  A
C442        C449   1.402       .  A
C445        C446   1.401       .  A
C445        F450   1.358       .  S
C446        C447   1.409       .  A
C446        F452   1.358       .  S
C447        C448   1.412       .  A
C448        C449   1.400       .  A
C448        F451   1.356       .  S
C449        F453   1.358       .  S
C456        C457   1.406       .  A
C456        C461   1.402       .  A
C456        F474   1.358       .  S
C457        C462   1.485       .  S
C457        C458   1.406       .  A
C458        C459   1.401       .  A
C458        F463   1.358       .  S
C459        C460   1.407       .  A
C459        F475   1.357       .  S
C460        C461   1.408       .  A
C461        F464   1.358       .  S
C462        C465   1.406       .  A
C462        C469   1.404       .  A
C465        C466   1.401       .  A
C465        F470   1.358       .  S
C466        C467   1.408       .  A
C466        F472   1.358       .  S
C467        C468   1.410       .  A
C468        C469   1.400       .  A
C468        F471   1.356       .  S
C469        F473   1.358       .  S
C476        C477   1.405       .  A
C476        C481   1.396       .  A
C476        F494   1.358       .  S
C477        C482   1.481       .  S
C477        C478   1.408       .  A
C478        C479   1.400       .  A
C478        F483   1.358       .  S
C479        C480   1.404       .  A
C479        F495   1.358       .  S
C480        C481   1.407       .  A
C481        F484   1.358       .  S
C482        C485   1.406       .  A
C482        C489   1.406       .  A
C485        C486   1.398       .  A
C485        F490   1.358       .  S
C486        C487   1.404       .  A
C486        F492   1.358       .  S
C487        C488   1.408       .  A
C488        C489   1.396       .  A
C488        F491   1.357       .  S
C489        F493   1.358       .  S
C496        C497   1.409       .  A
C496        C501   1.401       .  A
C496        F514   1.358       .  S
C497        C502   1.480       .  S
C497        C498   1.402       .  A
C498        C499   1.393       .  A
C498        F503   1.358       .  S
C499        C500   1.406       .  A
C499        F515   1.355       .  S
C500        C501   1.404       .  A
C501        F504   1.358       .  S
C502        C505   1.404       .  A
C502        C509   1.404       .  A
C505        C506   1.397       .  A
C505        F510   1.358       .  S
C506        C507   1.409       .  A
C506        F512   1.358       .  S
C507        C508   1.411       .  A
C508        C509   1.398       .  A
C508        F511   1.356       .  S
C509        F513   1.358       .  S
C516        C517   1.401       .  A
C516        C521   1.388       .  A
C516        F534   1.359       .  S
C517        C522   1.476       .  S
C517        C518   1.408       .  A
C518        C519   1.402       .  A
C518        F523   1.358       .  S
C519        C520   1.406       .  A
C519        F535   1.358       .  S
C520        C521   1.410       .  A
C521        F524   1.359       .  S
C522        C525   1.404       .  A
C522        C529   1.406       .  A
C525        C526   1.391       .  A
C525        F530   1.359       .  S
C526        C527   1.406       .  A
C526        F532   1.356       .  S
C527        C528   1.406       .  A
C528        C529   1.399       .  A
C528        F531   1.357       .  S
C529        F533   1.357       .  S
C536        C537   1.404       .  A
C536        C541   1.395       .  A
C536        F554   1.358       .  S
C537        C542   1.473       .  S
C537        C538   1.406       .  A
C538        C539   1.392       .  A
C538        F543   1.358       .  S
C539        C540   1.400       .  A
C539        F555   1.356       .  S
C540        C541   1.404       .  A
C541        F544   1.356       .  S
C542        C545   1.404       .  A
C542        C549   1.405       .  A
C545        C546   1.392       .  A
C545        F550   1.358       .  S
C546        C547   1.407       .  A
C546        F552   1.358       .  S
C547        C548   1.407       .  A
C548        C549   1.396       .  A
C548        F551   1.358       .  S
C549        F553   1.358       .  S
C556        C557   1.403       .  A
C556        C561   1.397       .  A
C556        F574   1.358       .  S
C557        C562   1.469       .  S
C557        C558   1.400       .  A
C558        C559   1.391       .  A
C558        F563   1.358       .  S
C559        C560   1.411       .  A
C559        F575   1.358       .  S
C560        C561   1.410       .  A
C561        F564   1.358       .  S
C562        C565   1.402       .  A
C562        C569   1.404       .  A
C565        C566   1.395       .  A
C565        F570   1.358       .  S
C566        C567   1.404       .  A
C566        F572   1.352       .  S
C567        C568   1.401       .  A
C568        C569   1.394       .  A
C568        F571   1.354       .  S
C569        F573   1.358       .  S
C576        C577   1.405       .  A
C576        C581   1.394       .  A
C576        F594   1.358       .  S
C577        C582   1.474       .  S
C577        C578   1.404       .  A
C578        C579   1.393       .  A
C578        F583   1.358       .  S
C579        C580   1.408       .  A
C579        F595   1.358       .  S
C580        C581   1.406       .  A
C581        F584   1.358       .  S
C582        C585   1.406       .  A
C582        C589   1.403       .  A
C585        C586   1.394       .  A
C585        F590   1.358       .  S
C586        C587   1.406       .  A
C586        F592   1.357       .  S
C587        C588   1.406       .  A
C588        C589   1.392       .  A
C588        F591   1.356       .  S
C589        F593   1.358       .  S
C596        C597   1.407       .  A
C596        C601   1.395       .  A
C596        F614   1.358       .  S
C597        C602   1.485       .  S
C597        C598   1.410       .  A
C598        C599   1.400       .  A
C598        F603   1.358       .  S
C599        C600   1.404       .  A
C599        F615   1.358       .  S
C600        C601   1.403       .  A
C601        F604   1.357       .  S
C602        C605   1.406       .  A
C602        C609   1.411       .  A
C605        C606   1.395       .  A
C605        F610   1.358       .  S
C606        C607   1.407       .  A
C606        F612   1.359       .  S
C607        C608   1.403       .  A
C608        C609   1.399       .  A
C608        F611   1.358       .  S
C609        F613   1.358       .  S
C616        C617   1.399       .  A
C616        C621   1.393       .  A
C616        F634   1.358       .  S
C617        C622   1.469       .  S
C617        C618   1.402       .  A
C618        C619   1.397       .  A
C618        F623   1.358       .  S
C619        C620   1.411       .  A
C619        F635   1.358       .  S
C620        C621   1.413       .  A
C621        F624   1.358       .  S
C622        C625   1.404       .  A
C622        C629   1.402       .  A
C625        C626   1.395       .  A
C625        F630   1.358       .  S
C626        C627   1.402       .  A
C626        F632   1.357       .  S
C627        C628   1.406       .  A
C628        C629   1.394       .  A
C628        F631   1.357       .  S
C629        F633   1.358       .  S
C636        C637   1.406       .  A
C636        C641   1.397       .  A
C636        F654   1.358       .  S
C637        C642   1.482       .  S
C637        C638   1.406       .  A
C638        C639   1.399       .  A
C638        F643   1.358       .  S
C639        C640   1.405       .  A
C639        F655   1.355       .  S
C640        C641   1.406       .  A
C641        F644   1.358       .  S
C642        C645   1.404       .  A
C642        C649   1.404       .  A
C645        C646   1.398       .  A
C645        F650   1.358       .  S
C646        C647   1.412       .  A
C646        F652   1.358       .  S
C647        C648   1.412       .  A
C648        C649   1.398       .  A
C648        F651   1.358       .  S
C649        F653   1.358       .  S
O656        C664   1.239       .  A
O656       Co676   1.948       .  S
O657        C665   1.265       .  A
O657       Co677   2.002       .  S
O658        C666   1.253       .  A
O658       Co678   1.999   1_556  S
O659        C667   1.263       .  A
O659       Co679   1.963       .  S
O660        C666   1.240       .  A
O660       Co677   1.948       .  S
O661        C667   1.270       .  A
O661       Co676   2.008       .  S
O662        C665   1.259       .  A
O663        C664   1.253       .  A
C664       C1262   1.471       .  S
C665       C1202   1.473       .  S
C666       C1235   1.476       .  S
C667       C1215   1.473       .  S
O668        C681   1.259       .  A
O668       Co676   1.981       .  S
O669        C682   1.265       .  A
O669       Co677   1.877       .  S
O670        C683   1.299       .  A
O671        C684   1.270       .  A
O672        C684   1.259       .  A
O672       Co677   1.980       .  S
O673        C683   1.270       .  A
O673       Co676   1.884       .  S
O674        C681   1.265       .  A
O674       Co679   1.997       .  S
O675        C682   1.299       .  A
O675       Co678   2.080   1_556  S
Co676       O680   1.915       .  S
Co679       O680   2.073       .  S
C681       C1175   1.475       .  S
C682       C1275   1.479       .  S
C683       C1302   1.483       .  S
C684       C1162   1.485       .  S
C685        C722   1.462       .  S
C685       C1082   1.481       .  S
C685        N703   1.351       .  A
N686        N703   1.325       .  A
N686        N708   1.319       .  A
N686       Co723   2.083   1_565  S
C687        C725   1.461       .  S
C687        N712   1.339       .  A
C687        H732   1.081       .  S
H688        C729   1.081       .  S
C689        C693   1.465       .  S
C689        N713   1.343       .  A
C689        H718   1.081       .  S
Co690       N708   2.087   1_545  S
Co690       N698   2.078   1_545  S
Co690       N730   2.081       .  S
Co690       N706   2.085       .  S
Co690      Cl734   2.455       .  S
N691        C729   1.342       .  A
N691        N698   1.320       .  A
N691       Co692   2.089   1_565  S
Co692       N712   2.082       .  S
Co692      Cl734   2.450       .  S
C693       C1115   1.483       .  S
C693        N731   1.349       .  A
N694        N701   1.320       .  A
N694        N724   1.325       .  A
N694       Co727   2.093   1_565  S
N695        N713   1.320       .  A
N695        N731   1.325       .  A
N696        C725   1.352       .  A
N696        N706   1.326       .  A
H697        C722   1.081       .  S
N698        N719   1.322       .  A
N699        N717   1.321       .  A
N699        N704   1.325       .  A
C700        C728   1.462       .  S
C700       C1062   1.477       .  S
C700        N704   1.349       .  A
N701        C716   1.340       .  A
C702        C705   1.458       .  S
C702        N730   1.340       .  A
C702        H736   1.082       .  S
C705       C1022   1.471       .  S
C705        N726   1.350       .  A
N706        N712   1.319       .  A
N707        C733   1.338       .  A
N707        N709   1.320       .  A
N708        C722   1.340       .  A
N709        N737   1.327       .  A
N709       Co727   2.097       .  S
H710        C733   1.081       .  S
H711        C728   1.081       .  S
N713       Co727   2.099   1_565  S
N714        N726   1.325       .  A
N714        N730   1.320       .  A
N714       Co723   2.088       .  S
C715        C729   1.461       .  S
C715       C1135   1.473       .  S
C715        N719   1.348       .  A
C716        C735   1.464       .  S
C716        H720   1.081       .  S
N717        C728   1.344       .  A
N717       Co727   2.095       .  S
C721        C733   1.460       .  S
C721        C995   1.487       .  S
C721        N737   1.355       .  A
Co723      Cl734   2.449       .  S
N724        C735   1.353       .  A
C725       C1035   1.483       .  S
C735       C1102   1.487       .  S
C738        C775   1.466       .  S
C738        C922   1.484       .  S
C738        N756   1.350       .  A
N739        N756   1.322       .  A
N739        N761   1.319       .  A
N739       Co776   2.079   1_655  S
C740        C778   1.461       .  S
C740        N765   1.338       .  A
C740        H785   1.081       .  S
H741        C782   1.082       .  S
C742        C746   1.464       .  S
C742        N766   1.343       .  A
C742        H771   1.081       .  S
Co743       N761   2.085       .  S
Co743       N751   2.086       .  S
Co743       N783   2.081   1_655  S
Co743       N759   2.089   1_655  S
Co743      Cl787   2.454   1_655  S
N744        C782   1.344       .  A
N744        N751   1.320       .  A
N744       Co745   2.091   1_655  S
Co745       N765   2.073       .  S
Co745      Cl787   2.447       .  S
C746        C962   1.473       .  S
C746        N784   1.345       .  A
N747        N754   1.321       .  A
N747        N777   1.325       .  A
N747       Co780   2.082   1_655  S
N748        N766   1.320       .  A
N748        N784   1.320       .  A
N749        C778   1.353       .  A
N749        N759   1.326       .  A
H750        C775   1.081       .  S
N751        N772   1.323       .  A
N752        N770   1.320       .  A
N752        N757   1.323       .  A
C753        C781   1.456       .  S
C753        C855   1.468       .  S
C753        N757   1.350       .  A
N754        C769   1.341       .  A
C755        C758   1.459       .  S
C755        N783   1.339       .  A
C755        H789   1.082       .  S
C758        C895   1.479       .  S
C758        N779   1.352       .  A
N759        N765   1.318       .  A
N760        C786   1.338       .  A
N760        N762   1.318       .  A
N761        C775   1.341       .  A
N762        N790   1.324       .  A
N762       Co780   2.086       .  S
H763        C786   1.080       .  S
H764        C781   1.082       .  S
N766       Co780   2.093   1_655  S
N767        N779   1.326       .  A
N767        N783   1.321       .  A
N767       Co776   2.095       .  S
C768        C782   1.463       .  S
C768        C975   1.481       .  S
C768        N772   1.350       .  A
C769        C788   1.464       .  S
C769        H773   1.081       .  S
N770        C781   1.338       .  A
N770       Co780   2.075       .  S
C774        C786   1.463       .  S
C774        C882   1.485       .  S
C774        N790   1.352       .  A
Co776      Cl787   2.447       .  S
N777        C788   1.350       .  A
C778        C835   1.484       .  S
C788        C935   1.481       .  S
C791        H792   1.111       .  S
C791        C797   1.543       .  S
C791        C796   1.539       .  S
C791        C795   1.535       .  S
C793        H794   1.111       .  S
C793        C799   1.538       .  S
C793        C798   1.534       .  S
C793        C800   1.533       .  S
C795        C798   1.371       .  D
C795       C1295   1.483       .  S
C796        C799   1.378       .  D
C796        C902   1.487       .  S
C797        C800   1.378       .  D
C797       C1042   1.490       .  S
C798       C1282   1.474       .  S
C799        C875   1.495       .  S
C800       C1055   1.492       .  S
C801        H802   1.111       .  S
C801        C807   1.539       .  S
C801        C806   1.535       .  S
C801        C805   1.536       .  S
C803        H804   1.111       .  S
C803        C809   1.538       .  S
C803        C808   1.537       .  S
C803        C810   1.533       .  S
C805        C808   1.375       .  D
C805       C1255   1.479       .  S
C806        C809   1.377       .  D
C806       C1015   1.488       .  S
C807        C810   1.376       .  D
C807        C915   1.493       .  S
C808       C1242   1.481       .  S
C809       C1002   1.493       .  S
C810        C942   1.485       .  S
C811        H812   1.111       .  S
C811        C817   1.535       .  S
C811        C816   1.533       .  S
C811        C815   1.539       .  S
C813        H814   1.111       .  S
C813        C819   1.538       .  S
C813        C818   1.537       .  S
C813        C820   1.534       .  S
C815        C818   1.376       .  D
C815       C1182   1.483       .  S
C816        C819   1.376       .  D
C816       C1142   1.483       .  S
C817        C820   1.376       .  D
C817        C842   1.490       .  S
C818       C1155   1.481       .  S
C819       C1122   1.494       .  S
C820        C862   1.482       .  S
C821        H822   1.111       .  S
C821        C827   1.543       .  S
C821        C826   1.543       .  S
C821        C825   1.529       .  S
C823        H824   1.106       .  S
C823        C829   1.539       .  S
C823        C828   1.540       .  S
C823        C830   1.534       .  S
C825        C828   1.363       .  D
C825       C1222   1.475       .  S
C826        C829   1.385       .  D
C826        C982   1.492       .  S
C827        C830   1.377       .  D
C827       C1075   1.486       .  S
C828       C1195   1.472       .  S
C829        C955   1.500       .  S
C830       C1095   1.501       .  S
C831        C832   1.404       .  A
C831        C836   1.399       .  A
C831        F849   1.358       .  S
C832        C837   1.475       .  S
C832        C833   1.400       .  A
C833        C834   1.399       .  A
C833        F838   1.358       .  S
C834        C835   1.412       .  A
C834        F850   1.356       .  S
C835        C836   1.408       .  A
C836        F839   1.358       .  S
C837        C840   1.400       .  A
C837        C844   1.404       .  A
C840        C841   1.394       .  A
C840        F845   1.358       .  S
C841        C842   1.409       .  A
C841        F847   1.355       .  S
C842        C843   1.409       .  A
C843        C844   1.403       .  A
C843        F846   1.358       .  S
C844        F848   1.357       .  S
C851        C852   1.409       .  A
C851        C856   1.397       .  A
C851        F869   1.358       .  S
C852        C857   1.482       .  S
C852        C853   1.407       .  A
C853        C854   1.396       .  A
C853        F858   1.358       .  S
C854        C855   1.404       .  A
C854        F870   1.358       .  S
C855        C856   1.403       .  A
C856        F859   1.358       .  S
C857        C860   1.406       .  A
C857        C864   1.408       .  A
C860        C861   1.394       .  A
C860        F865   1.358       .  S
C861        C862   1.408       .  A
C861        F867   1.357       .  S
C862        C863   1.403       .  A
C863        C864   1.396       .  A
C863        F866   1.358       .  S
C864        F868   1.358       .  S
C871        C872   1.402       .  A
C871        C876   1.400       .  A
C871        F889   1.357       .  S
C872        C877   1.473       .  S
C872        C873   1.399       .  A
C873        C874   1.394       .  A
C873        F878   1.358       .  S
C874        C875   1.412       .  A
C874        F890   1.354       .  S
C875        C876   1.410       .  A
C876        F879   1.357       .  S
C877        C880   1.401       .  A
C877        C884   1.401       .  A
C880        C881   1.398       .  A
C880        F885   1.358       .  S
C881        C882   1.412       .  A
C881        F887   1.356       .  S
C882        C883   1.411       .  A
C883        C884   1.398       .  A
C883        F886   1.358       .  S
C884        F888   1.358       .  S
C891        C892   1.407       .  A
C891        C896   1.400       .  A
C891        F909   1.358       .  S
C892        C897   1.486       .  S
C892        C893   1.408       .  A
C893        C894   1.400       .  A
C893        F898   1.358       .  S
C894        C895   1.405       .  A
C894        F910   1.358       .  S
C895        C896   1.408       .  A
C896        F899   1.357       .  S
C897        C900   1.409       .  A
C897        C904   1.406       .  A
C900        C901   1.401       .  A
C900        F905   1.358       .  S
C901        C902   1.402       .  A
C901        F907   1.357       .  S
C902        C903   1.407       .  A
C903        C904   1.398       .  A
C903        F906   1.356       .  S
C904        F908   1.358       .  S
C911        C912   1.405       .  A
C911        C916   1.401       .  A
C911        F929   1.358       .  S
C912        C917   1.477       .  S
C912        C913   1.401       .  A
C913        C914   1.394       .  A
C913        F918   1.358       .  S
C914        C915   1.410       .  A
C914        F930   1.353       .  S
C915        C916   1.409       .  A
C916        F919   1.358       .  S
C917        C920   1.401       .  A
C917        C924   1.404       .  A
C920        C921   1.398       .  A
C920        F925   1.358       .  S
C921        C922   1.412       .  A
C921        F927   1.358       .  S
C922        C923   1.409       .  A
C923        C924   1.398       .  A
C923        F926   1.356       .  S
C924        F928   1.358       .  S
C931        C932   1.406       .  A
C931        C936   1.399       .  A
C931        F949   1.358       .  S
C932        C937   1.486       .  S
C932        C933   1.407       .  A
C933        C934   1.401       .  A
C933        F938   1.358       .  S
C934        C935   1.409       .  A
C934        F950   1.358       .  S
C935        C936   1.406       .  A
C936        F939   1.357       .  S
C937        C940   1.406       .  A
C937        C944   1.408       .  A
C940        C941   1.398       .  A
C940        F945   1.358       .  S
C941        C942   1.408       .  A
C941        F947   1.357       .  S
C942        C943   1.402       .  A
C943        C944   1.400       .  A
C943        F946   1.358       .  S
C944        F948   1.358       .  S
C951        C952   1.406       .  A
C951        C956   1.404       .  A
C951        F969   1.357       .  S
C952        C957   1.479       .  S
C952        C953   1.399       .  A
C953        C954   1.389       .  A
C953        F958   1.359       .  S
C954        C955   1.413       .  A
C954        F970   1.352       .  S
C955        C956   1.411       .  A
C956        F959   1.357       .  S
C957        C960   1.406       .  A
C957        C964   1.406       .  A
C960        C961   1.395       .  A
C960        F965   1.358       .  S
C961        C962   1.406       .  A
C961        F967   1.359       .  S
C962        C963   1.406       .  A
C963        C964   1.400       .  A
C963        F966   1.357       .  S
C964        F968   1.358       .  S
C971        C972   1.406       .  A
C971        C976   1.396       .  A
C971        F989   1.358       .  S
C972        C977   1.488       .  S
C972        C973   1.409       .  A
C973        C974   1.405       .  A
C973        F978   1.358       .  S
C974        C975   1.407       .  A
C974        F990   1.358       .  S
C975        C976   1.406       .  A
C976        F979   1.358       .  S
C977        C980   1.408       .  A
C977        C984   1.406       .  A
C980        C981   1.405       .  A
C980        F985   1.357       .  S
C981        C982   1.406       .  A
C981        F987   1.356       .  S
C982        C983   1.407       .  A
C983        C984   1.396       .  A
C983        F986   1.355       .  S
C984        F988   1.358       .  S
C991        C992   1.403       .  A
C991        C996   1.399       .  A
C991       F1009   1.358       .  S
C992        C997   1.481       .  S
C992        C993   1.404       .  A
C993        C994   1.401       .  A
C993        F998   1.358       .  S
C994        C995   1.410       .  A
C994       F1010   1.357       .  S
C995        C996   1.411       .  A
C996        F999   1.357       .  S
C997       C1000   1.406       .  A
C997       C1004   1.402       .  A
C1000      C1001   1.403       .  A
C1000      F1005   1.357       .  S
C1001      C1002   1.408       .  A
C1001      F1007   1.357       .  S
C1002      C1003   1.410       .  A
C1003      C1004   1.396       .  A
C1003      F1006   1.355       .  S
C1004      F1008   1.358       .  S
C1011      C1012   1.408       .  A
C1011      C1016   1.400       .  A
C1011      F1029   1.358       .  S
C1012      C1017   1.487       .  S
C1012      C1013   1.407       .  A
C1013      C1014   1.397       .  A
C1013      F1018   1.358       .  S
C1014      C1015   1.408       .  A
C1014      F1030   1.357       .  S
C1015      C1016   1.404       .  A
C1016      F1019   1.358       .  S
C1017      C1020   1.408       .  A
C1017      C1024   1.409       .  A
C1020      C1021   1.400       .  A
C1020      F1025   1.358       .  S
C1021      C1022   1.404       .  A
C1021      F1027   1.358       .  S
C1022      C1023   1.402       .  A
C1023      C1024   1.399       .  A
C1023      F1026   1.358       .  S
C1024      F1028   1.358       .  S
C1031      C1032   1.403       .  A
C1031      C1036   1.397       .  A
C1031      F1049   1.358       .  S
C1032      C1037   1.480       .  S
C1032      C1033   1.405       .  A
C1033      C1034   1.401       .  A
C1033      F1038   1.358       .  S
C1034      C1035   1.410       .  A
C1034      F1050   1.358       .  S
C1035      C1036   1.408       .  A
C1036      F1039   1.357       .  S
C1037      C1040   1.406       .  A
C1037      C1044   1.402       .  A
C1040      C1041   1.402       .  A
C1040      F1045   1.357       .  S
C1041      C1042   1.408       .  A
C1041      F1047   1.358       .  S
C1042      C1043   1.409       .  A
C1043      C1044   1.395       .  A
C1043      F1046   1.355       .  S
C1044      F1048   1.358       .  S
C1051      C1052   1.408       .  A
C1051      C1056   1.399       .  A
C1051      F1069   1.358       .  S
C1052      C1057   1.494       .  S
C1052      C1053   1.410       .  A
C1053      C1054   1.403       .  A
C1053      F1058   1.358       .  S
C1054      C1055   1.405       .  A
C1054      F1070   1.358       .  S
C1055      C1056   1.408       .  A
C1056      F1059   1.357       .  S
C1057      C1060   1.411       .  A
C1057      C1064   1.409       .  A
C1060      C1061   1.402       .  A
C1060      F1065   1.358       .  S
C1061      C1062   1.403       .  A
C1061      F1067   1.358       .  S
C1062      C1063   1.405       .  A
C1063      C1064   1.402       .  A
C1063      F1066   1.358       .  S
C1064      F1068   1.358       .  S
C1071      C1072   1.406       .  A
C1071      C1076   1.396       .  A
C1071      F1089   1.358       .  S
C1072      C1077   1.486       .  S
C1072      C1073   1.408       .  A
C1073      C1074   1.402       .  A
C1073      F1078   1.357       .  S
C1074      C1075   1.403       .  A
C1074      F1090   1.356       .  S
C1075      C1076   1.407       .  A
C1076      F1079   1.357       .  S
C1077      C1080   1.407       .  A
C1077      C1084   1.407       .  A
C1080      C1081   1.399       .  A
C1080      F1085   1.358       .  S
C1081      C1082   1.408       .  A
C1081      F1087   1.357       .  S
C1082      C1083   1.406       .  A
C1083      C1084   1.400       .  A
C1083      F1086   1.358       .  S
C1084      F1088   1.358       .  S
C1091      C1092   1.403       .  A
C1091      C1096   1.402       .  A
C1091      F1109   1.358       .  S
C1092      C1097   1.479       .  S
C1092      C1093   1.400       .  A
C1093      C1094   1.397       .  A
C1093      F1098   1.358       .  S
C1094      C1095   1.413       .  A
C1094      F1110   1.354       .  S
C1095      C1096   1.411       .  A
C1096      F1099   1.357       .  S
C1097      C1100   1.403       .  A
C1097      C1104   1.402       .  A
C1100      C1101   1.400       .  A
C1100      F1105   1.358       .  S
C1101      C1102   1.409       .  A
C1101      F1107   1.358       .  S
C1102      C1103   1.412       .  A
C1103      C1104   1.401       .  A
C1103      F1106   1.356       .  S
C1104      F1108   1.358       .  S
C1111      C1112   1.406       .  A
C1111      C1116   1.402       .  A
C1111      F1129   1.358       .  S
C1112      C1117   1.486       .  S
C1112      C1113   1.406       .  A
C1113      C1114   1.401       .  A
C1113      F1118   1.358       .  S
C1114      C1115   1.407       .  A
C1114      F1130   1.357       .  S
C1115      C1116   1.408       .  A
C1116      F1119   1.358       .  S
C1117      C1120   1.406       .  A
C1117      C1124   1.405       .  A
C1120      C1121   1.402       .  A
C1120      F1125   1.358       .  S
C1121      C1122   1.408       .  A
C1121      F1127   1.358       .  S
C1122      C1123   1.409       .  A
C1123      C1124   1.400       .  A
C1123      F1126   1.356       .  S
C1124      F1128   1.358       .  S
C1131      C1132   1.404       .  A
C1131      C1136   1.396       .  A
C1131      F1149   1.358       .  S
C1132      C1137   1.479       .  S
C1132      C1133   1.407       .  A
C1133      C1134   1.400       .  A
C1133      F1138   1.358       .  S
C1134      C1135   1.405       .  A
C1134      F1150   1.358       .  S
C1135      C1136   1.406       .  A
C1136      F1139   1.358       .  S
C1137      C1140   1.405       .  A
C1137      C1144   1.405       .  A
C1140      C1141   1.399       .  A
C1140      F1145   1.358       .  S
C1141      C1142   1.405       .  A
C1141      F1147   1.358       .  S
C1142      C1143   1.408       .  A
C1143      C1144   1.396       .  A
C1143      F1146   1.357       .  S
C1144      F1148   1.358       .  S
C1151      C1152   1.409       .  A
C1151      C1156   1.401       .  A
C1151      F1169   1.358       .  S
C1152      C1157   1.481       .  S
C1152      C1153   1.403       .  A
C1153      C1154   1.395       .  A
C1153      F1158   1.358       .  S
C1154      C1155   1.406       .  A
C1154      F1170   1.355       .  S
C1155      C1156   1.403       .  A
C1156      F1159   1.357       .  S
C1157      C1160   1.405       .  A
C1157      C1164   1.404       .  A
C1160      C1161   1.398       .  A
C1160      F1165   1.358       .  S
C1161      C1162   1.409       .  A
C1161      F1167   1.358       .  S
C1162      C1163   1.412       .  A
C1163      C1164   1.399       .  A
C1163      F1166   1.355       .  S
C1164      F1168   1.358       .  S
C1171      C1172   1.402       .  A
C1171      C1176   1.390       .  A
C1171      F1189   1.359       .  S
C1172      C1177   1.478       .  S
C1172      C1173   1.407       .  A
C1173      C1174   1.403       .  A
C1173      F1178   1.358       .  S
C1174      C1175   1.406       .  A
C1174      F1190   1.358       .  S
C1175      C1176   1.410       .  A
C1176      F1179   1.359       .  S
C1177      C1180   1.403       .  A
C1177      C1184   1.406       .  A
C1180      C1181   1.391       .  A
C1180      F1185   1.359       .  S
C1181      C1182   1.407       .  A
C1181      F1187   1.356       .  S
C1182      C1183   1.407       .  A
C1183      C1184   1.401       .  A
C1183      F1186   1.357       .  S
C1184      F1188   1.357       .  S
C1191      C1192   1.403       .  A
C1191      C1196   1.393       .  A
C1191      F1209   1.358       .  S
C1192      C1197   1.470       .  S
C1192      C1193   1.405       .  A
C1193      C1194   1.393       .  A
C1193      F1198   1.358       .  S
C1194      C1195   1.401       .  A
C1194      F1210   1.357       .  S
C1195      C1196   1.404       .  A
C1196      F1199   1.356       .  S
C1197      C1200   1.403       .  A
C1197      C1204   1.404       .  A
C1200      C1201   1.390       .  A
C1200      F1205   1.358       .  S
C1201      C1202   1.408       .  A
C1201      F1207   1.358       .  S
C1202      C1203   1.409       .  A
C1203      C1204   1.397       .  A
C1203      F1206   1.358       .  S
C1204      F1208   1.358       .  S
C1211      C1212   1.403       .  A
C1211      C1216   1.396       .  A
C1211      F1229   1.358       .  S
C1212      C1217   1.467       .  S
C1212      C1213   1.400       .  A
C1213      C1214   1.391       .  A
C1213      F1218   1.358       .  S
C1214      C1215   1.410       .  A
C1214      F1230   1.358       .  S
C1215      C1216   1.408       .  A
C1216      F1219   1.358       .  S
C1217      C1220   1.401       .  A
C1217      C1224   1.404       .  A
C1220      C1221   1.394       .  A
C1220      F1225   1.358       .  S
C1221      C1222   1.405       .  A
C1221      F1227   1.352       .  S
C1222      C1223   1.400       .  A
C1223      C1224   1.394       .  A
C1223      F1226   1.354       .  S
C1224      F1228   1.358       .  S
C1231      C1232   1.404       .  A
C1231      C1236   1.395       .  A
C1231      F1249   1.358       .  S
C1232      C1237   1.473       .  S
C1232      C1233   1.402       .  A
C1233      C1234   1.394       .  A
C1233      F1238   1.358       .  S
C1234      C1235   1.411       .  A
C1234      F1250   1.358       .  S
C1235      C1236   1.408       .  A
C1236      F1239   1.358       .  S
C1237      C1240   1.405       .  A
C1237      C1244   1.401       .  A
C1240      C1241   1.395       .  A
C1240      F1245   1.358       .  S
C1241      C1242   1.406       .  A
C1241      F1247   1.357       .  S
C1242      C1243   1.408       .  A
C1243      C1244   1.394       .  A
C1243      F1246   1.355       .  S
C1244      F1248   1.358       .  S
C1251      C1252   1.407       .  A
C1251      C1256   1.394       .  A
C1251      F1269   1.358       .  S
C1252      C1257   1.485       .  S
C1252      C1253   1.410       .  A
C1253      C1254   1.399       .  A
C1253      F1258   1.358       .  S
C1254      C1255   1.404       .  A
C1254      F1270   1.358       .  S
C1255      C1256   1.403       .  A
C1256      F1259   1.356       .  S
C1257      C1260   1.406       .  A
C1257      C1264   1.411       .  A
C1260      C1261   1.394       .  A
C1260      F1265   1.358       .  S
C1261      C1262   1.407       .  A
C1261      F1267   1.359       .  S
C1262      C1263   1.403       .  A
C1263      C1264   1.399       .  A
C1263      F1266   1.358       .  S
C1264      F1268   1.358       .  S
C1271      C1272   1.401       .  A
C1271      C1276   1.394       .  A
C1271      F1289   1.358       .  S
C1272      C1277   1.471       .  S
C1272      C1273   1.402       .  A
C1273      C1274   1.395       .  A
C1273      F1278   1.358       .  S
C1274      C1275   1.409       .  A
C1274      F1290   1.358       .  S
C1275      C1276   1.413       .  A
C1276      F1279   1.358       .  S
C1277      C1280   1.405       .  A
C1277      C1284   1.403       .  A
C1280      C1281   1.394       .  A
C1280      F1285   1.358       .  S
C1281      C1282   1.402       .  A
C1281      F1287   1.357       .  S
C1282      C1283   1.406       .  A
C1283      C1284   1.394       .  A
C1283      F1286   1.357       .  S
C1284      F1288   1.358       .  S
C1291      C1292   1.406       .  A
C1291      C1296   1.395       .  A
C1291      F1309   1.358       .  S
C1292      C1297   1.479       .  S
C1292      C1293   1.406       .  A
C1293      C1294   1.397       .  A
C1293      F1298   1.358       .  S
C1294      C1295   1.404       .  A
C1294      F1310   1.355       .  S
C1295      C1296   1.406       .  A
C1296      F1299   1.358       .  S
C1297      C1300   1.404       .  A
C1297      C1304   1.404       .  A
C1300      C1301   1.396       .  A
C1300      F1305   1.358       .  S
C1301      C1302   1.411       .  A
C1301      F1307   1.358       .  S
C1302      C1303   1.411       .  A
C1303      C1304   1.397       .  A
C1303      F1306   1.358       .  S
C1304      F1308   1.358       .  S
