geometry optimzed in LAMMPS
_audit_creation_date              2020-11-30 
_audit_creation_method            'lammps2cif' 
_symmetry_space_group_name_H-M    'P1' 
_symmetry_Int_Tables_number       1 
_symmetry_cell_setting            triclinic 
loop_ 
_symmetry_equiv_pos_as_xyz 
  x,y,z 
_cell_length_a                    35.54545197 
_cell_length_b                    35.545295153325604 
_cell_length_c                    35.63441108802477 
_cell_angle_alpha                 89.85161054609388 
_cell_angle_beta                  89.97253324907943 
_cell_angle_gamma                 90.16006270280462 
loop_ 
_atom_site_label 
_atom_site_type_symbol 
_atom_site_fract_x 
_atom_site_fract_y 
_atom_site_fract_z 
_atom_site_charge 
N1          N  0.74296054  0.49515130  0.75170790    -0.36700
N2          N  0.79769536  0.50370923  0.69334921    -0.57200
N3          N  0.85691919  0.48596439  0.74756027    -0.36700
N4          N  0.80008624  0.47961115  0.80656600    -0.57200
C5          C  0.72262935  0.51085688  0.72391980     0.26900
C6          C  0.72450455  0.50249460  0.78390924     0.26900
C7          C  0.87780315  0.50075222  0.71916027     0.26900
C8          C  0.87915372  0.48430569  0.77845553     0.26900
C9          C  0.76652331  0.50179623  0.67160301     0.35500
C10         C  0.82761970  0.50307576  0.67005824     0.35500
C11         C  0.76929945  0.47391568  0.82834407     0.35500
C12         C  0.83009735  0.46709421  0.82615727     0.35500
C13         C  0.69150421  0.52908848  0.73849392    -0.22000
C14         C  0.69280748  0.52399905  0.77655918    -0.22000
C15         C  0.91397227  0.50767270  0.73198788    -0.22000
C16         C  0.91493843  0.49699554  0.76915418    -0.22000
C17         C  0.77661236  0.49978681  0.63414401    -0.23000
C18         C  0.81537908  0.50118071  0.63311269    -0.23000
C19         C  0.77964956  0.45781906  0.86213499    -0.23000
C20         C  0.81817714  0.45388269  0.86098153    -0.23000
C21         C  0.72948319  0.50570193  0.68556195    -0.18400
C22         C  0.73257849  0.48582301  0.81876579    -0.18400
C23         C  0.86824670  0.47123273  0.81468224    -0.18400
C24         C  0.86559713  0.50702222  0.68164922    -0.18400
H25         H  0.66968455  0.54371713  0.72315354     0.14500
H26         H  0.67197121  0.53370446  0.79644350     0.14500
H27         H  0.93737976  0.51913997  0.71620466     0.14500
H28         H  0.93928048  0.49880640  0.78727700     0.14500
H29         H  0.75805665  0.49886700  0.61009741     0.12800
H30         H  0.83259064  0.50104700  0.60804630     0.12800
H31         H  0.76156143  0.45077883  0.88557434     0.12800
H32         H  0.83541132  0.44328796  0.88365865     0.12800
H33         H  0.76435494  0.47552137  0.74812971     0.26100
H34         H  0.82994215  0.47491304  0.74536768     0.26100
N35         N  0.49352910  0.75150519  0.75546482    -0.36700
N36         N  0.50670935  0.69454649  0.81138648    -0.57200
N37         N  0.50085069  0.75217735  0.86920753    -0.36700
N38         N  0.48492556  0.80847553  0.81141126    -0.57200
C39         C  0.48640174  0.71987154  0.73595051     0.26900
C40         C  0.47867798  0.78007878  0.73552319     0.26900
C41         C  0.50240667  0.72089647  0.89092919     0.26900
C42         C  0.48767219  0.78057320  0.89084749     0.26900
C43         C  0.51276273  0.67355972  0.78032666     0.35500
C44         C  0.51824412  0.67390194  0.84104472     0.35500
C45         C  0.48762309  0.83109953  0.78091454     0.35500
C46         C  0.48629899  0.83098705  0.84179493     0.35500
C47         C  0.46608193  0.72836451  0.70377572    -0.22000
C48         C  0.46135530  0.76656200  0.70343225    -0.22000
C49         C  0.49129369  0.72987517  0.92715181    -0.22000
C50         C  0.48167546  0.76737134  0.92700116    -0.22000
C51         C  0.52786476  0.63910362  0.79015218    -0.23000
C52         C  0.53113785  0.63917894  0.82867843    -0.23000
C53         C  0.49062781  0.86829831  0.79185863    -0.23000
C54         C  0.48931527  0.86829275  0.83049776    -0.15000
C55         C  0.50221806  0.68455524  0.74370673    -0.18400
C56         C  0.48413350  0.81827134  0.74360440    -0.18400
C57         C  0.48269988  0.81849217  0.87942437    -0.18400
C58         C  0.51415352  0.68462841  0.87919001    -0.18400
H59         H  0.45694170  0.70918180  0.68204602     0.14500
H60         H  0.44765492  0.78269180  0.68158071     0.14500
H61         H  0.48996690  0.71129974  0.95122985     0.14500
H62         H  0.47176614  0.78319826  0.95093830     0.14500
H63         H  0.53488843  0.61606886  0.77164526     0.12800
H64         H  0.54124642  0.61601863  0.84563358     0.12800
H65         H  0.49253135  0.89286054  0.77394817     0.12800
H66         H  0.49048028  0.89293350  0.84824582     0.12800
H67         H  0.51261592  0.75426642  0.77744743     0.26100
H68         H  0.51118387  0.75463618  0.84208751     0.26100
N69         N  0.74072073  0.75435115  0.49785883    -0.36700
N70         N  0.79843705  0.80931977  0.49628773    -0.57200
N71         N  0.74179052  0.86711775  0.51377914    -0.36700
N72         N  0.68356657  0.81005522  0.51343049    -0.57200
C73         C  0.76933254  0.73454524  0.48292648     0.26900
C74         C  0.70883792  0.73609354  0.48860501     0.26900
C75         C  0.77082308  0.88892276  0.50199414     0.26900
C76         C  0.71061263  0.88903479  0.51487618     0.26900
C77         C  0.82060658  0.77838245  0.49752641     0.35500
C78         C  0.82105244  0.83948165  0.50074639     0.35500
C79         C  0.66321742  0.77831248  0.51899048     0.35500
C80         C  0.66364598  0.83862636  0.52838233     0.35500
C81         C  0.75543745  0.70377353  0.46343637    -0.22000
C82         C  0.71712912  0.70512385  0.46652363    -0.22000
C83         C  0.75806959  0.92536934  0.49630794    -0.22000
C84         C  0.72018503  0.92547401  0.50461235    -0.22000
C85         C  0.85774579  0.78879776  0.50262262    -0.23000
C86         C  0.85813849  0.82760200  0.50420994    -0.23000
C87         C  0.63003669  0.78661499  0.53746216    -0.23000
C88         C  0.63002963  0.82494762  0.54296435    -0.23000
C89         C  0.80749319  0.74153179  0.49028629    -0.18400
C90         C  0.67367359  0.74258826  0.50530255    -0.18400
C91         C  0.67400326  0.87708791  0.52580163    -0.18400
C92         C  0.80891751  0.87746210  0.49855498    -0.18400
H93         H  0.77095161  0.68189368  0.44929322     0.14500
H94         H  0.69766273  0.68435286  0.45567545     0.14500
H95         H  0.77443820  0.94956050  0.48753299     0.14500
H96         H  0.70179031  0.94963911  0.50312399     0.14500
H97         H  0.88201438  0.77050586  0.50369912     0.12800
H98         H  0.88296282  0.84502002  0.50720673     0.12800
H99         H  0.60783803  0.76727604  0.54539788     0.12800
H100        H  0.60763473  0.84083491  0.55594577     0.12800
H101        H  0.74321725  0.77481796  0.51857170     0.26100
H102        H  0.74385037  0.83973359  0.52377282     0.26100
O103        O  0.56305615  0.53161038  0.96892084    -0.85400
O104        O  0.54264239  0.48820173  0.02978689    -0.82500
C105        C  0.53386921  0.46120189  0.05069659     0.98000
O106        O  0.52467031  0.42987679  0.03607421    -0.82500
O107        O  0.46512437  0.44842532  0.99037549    -0.85100
C108        C  0.44465993  0.45572527  0.96273909     1.02600
O109        O  0.46025838  0.46429505  0.93157347    -0.77900
O110        O  0.50513351  0.52563252  0.94982582    -0.78100
C111        C  0.53236202  0.54651490  0.95816583     1.02500
O112        O  0.60497256  0.46782118  0.94251745    -0.85400
O113        O  0.59152323  0.42628555  0.00446005    -0.82500
C114        C  0.58398429  0.39374372  0.99130017     0.98100
O115        O  0.55396783  0.38762169  0.97408346    -0.82500
O116        O  0.49325209  0.39852216  0.93047612    -0.85100
C117        C  0.50921019  0.40465771  0.89894301     1.02500
O118        O  0.52564301  0.43517365  0.89271015    -0.77900
O119        O  0.56745065  0.49727043  0.90330110    -0.78100
C120        C  0.59979357  0.48410014  0.91178808     1.02500
Cr121      Cr  0.57280577  0.47732708  0.98536283     1.93700
Cr122      Cr  0.51031217  0.41883200  0.98161409     1.93200
Cr123      Cr  0.51556960  0.47963240  0.92206756     1.39100
O124        O  0.53341517  0.45817516  0.96259563    -1.23200
O125        O  0.45647003  0.53929361  0.57238378    -0.85400
O126        O  0.49923717  0.47742482  0.55302027    -0.82500
C127        C  0.52606357  0.45605147  0.54520929     0.98000
O128        O  0.55739365  0.47054542  0.53572063    -0.82500
O129        O  0.53966024  0.51659114  0.47545275    -0.85100
C130        C  0.53336531  0.54488425  0.45530295     1.02600
O131        O  0.52490502  0.57587757  0.47103756    -0.77900
O132        O  0.46355649  0.55968442  0.51498862    -0.78100
C133        C  0.44225569  0.55048885  0.54148146     1.02500
O134        O  0.52072012  0.56474161  0.61482919    -0.85400
O135        O  0.56159019  0.50245466  0.60237429    -0.82500
C136        C  0.59417682  0.51619879  0.59540611     0.98100
O137        O  0.60025231  0.53253334  0.56475698    -0.82500
O138        O  0.59062492  0.57519161  0.50262274    -0.85100
C139        C  0.58506813  0.60774698  0.51644408     1.02500
O140        O  0.55594408  0.61447249  0.53499403    -0.77900
O141        O  0.49303249  0.60506645  0.57710772    -0.78100
C142        C  0.50538407  0.59586854  0.60946594     1.02500
Cr143      Cr  0.51065283  0.52206359  0.58285301     1.93700
Cr144      Cr  0.56928850  0.52481076  0.52081435     1.93200
Cr145      Cr  0.51028788  0.58598221  0.52570957     1.39100
O146        O  0.53039709  0.54467368  0.54356822    -1.23200
O147        O  0.45344042  0.93123247  0.47021088    -0.85400
O148        O  0.51358670  0.94461068  0.51732542    -0.82500
C149        C  0.53361832  0.95320736  0.54500111     0.98000
O150        O  0.51780903  0.96487451  0.57490391    -0.82500
O151        O  0.47674221  0.02803128  0.55457432    -0.85100
C152        C  0.45050621  0.04992523  0.54594391     1.02600
O153        O  0.41940905  0.03604824  0.53497257    -0.77900
O154        O  0.43988843  0.99086949  0.47476063    -0.78100
C155        C  0.44606543  0.96266133  0.45455296     1.02500
O156        O  0.41807160  0.89239913  0.53193262    -0.85400
O157        O  0.48015760  0.89949544  0.57740434    -0.82500
C158        C  0.46661907  0.90833530  0.60939040     0.98100
O159        O  0.45096275  0.93946454  0.61371225    -0.82500
O160        O  0.41215562  0.00260946  0.60028339    -0.85100
C161        C  0.37988996  0.98907812  0.59198040     1.02500
O162        O  0.37428725  0.97427884  0.56058693    -0.77900
O163        O  0.38649180  0.93278408  0.49774832    -0.78100
C164        C  0.39101075  0.89955799  0.51048455     1.02500
Cr165      Cr  0.46527705  0.91972430  0.52538545     1.93700
Cr166      Cr  0.46342439  0.98272257  0.58297753     1.93200
Cr167      Cr  0.40763360  0.98232578  0.51834723     1.39100
O168        O  0.44520406  0.96129165  0.54256666    -1.23200
N169        N  0.49464033  0.25141190  0.75072416    -0.36700
N170        N  0.50370000  0.30941926  0.69526692    -0.57200
N171        N  0.48489426  0.25404814  0.63719143    -0.36700
N172        N  0.47823678  0.19553933  0.69418915    -0.57200
C173        C  0.51033640  0.27907764  0.77138681     0.26900
C174        C  0.49948661  0.21916234  0.77013034     0.26900
C175        C  0.49674683  0.28302574  0.61538111     0.26900
C176        C  0.48173688  0.22330895  0.61495976     0.26900
C177        C  0.50347672  0.33143424  0.72625602     0.35500
C178        C  0.50202098  0.33259328  0.66521713     0.35500
C179        C  0.47086551  0.17467208  0.72512923     0.35500
C180        C  0.46514644  0.17598463  0.66450800     0.35500
C181        C  0.52551887  0.26408995  0.80404093    -0.22000
C182        C  0.51910011  0.22624752  0.80297312    -0.22000
C183        C  0.50031387  0.27072796  0.57863469    -0.22000
C184        C  0.49075313  0.23317392  0.57835100    -0.22000
C185        C  0.50227677  0.36896204  0.71595800    -0.23000
C186        C  0.50170323  0.36974870  0.67725420    -0.23000
C187        C  0.45318925  0.14143867  0.71523528    -0.23000
C188        C  0.44979056  0.14210264  0.67673052    -0.23000
C189        C  0.50746324  0.31774310  0.76336294    -0.18400
C190        C  0.48237979  0.18451545  0.76169571    -0.18400
C191        C  0.46976771  0.18689874  0.62646619    -0.18400
C192        C  0.50229753  0.32077178  0.62712840    -0.18400
H193        H  0.53910735  0.27852350  0.82696823     0.14500
H194        H  0.52664813  0.20640326  0.82478187     0.14500
H195        H  0.50849637  0.28721011  0.55437373     0.14500
H196        H  0.49029787  0.21524408  0.55385280     0.14500
H197        H  0.50274235  0.39315520  0.73433507     0.12800
H198        H  0.50113226  0.39483004  0.65997585     0.12800
H199        H  0.44445154  0.11882025  0.73370136     0.12800
H200        H  0.43774786  0.11996496  0.65971353     0.12800
H201        H  0.47637532  0.25524867  0.72825938     0.26100
H202        H  0.47625154  0.25596386  0.66487751     0.26100
O203        O  0.45521112  0.06873194  0.03377750    -0.85400
O204        O  0.51585780  0.05311926  0.98754805    -0.82500
C205        C  0.53623981  0.04652081  0.95963899     0.98000
O206        O  0.52073386  0.03787333  0.92865328    -0.82500
O207        O  0.47696839  0.97544175  0.94649434    -0.85100
C208        C  0.44981684  0.95437224  0.95483056     1.02600
O209        O  0.41835754  0.96898829  0.96382389    -0.77900
O210        O  0.43541269  0.01092587  0.02650074    -0.78100
C211        C  0.44492566  0.03731734  0.04779833     1.02500
O212        O  0.42569624  0.11310989  0.97333290    -0.85400
O213        O  0.48652277  0.10368155  0.92900397    -0.82500
C214        C  0.47281074  0.09700063  0.89655572     0.98100
O215        O  0.45634080  0.06663701  0.88975909    -0.82500
O216        O  0.41520539  0.00342075  0.89940902    -0.85100
C217        C  0.38309202  0.01767541  0.90641821     1.02500
O218        O  0.37720900  0.03421115  0.93678569    -0.77900
O219        O  0.38766395  0.07300546  0.00116188    -0.78100
C220        C  0.39548195  0.10621797  0.98997310     1.02500
Cr221      Cr  0.46976631  0.08186513  0.97969274     1.93700
Cr222      Cr  0.46619488  0.02184598  0.91899642     1.93200
Cr223      Cr  0.40739842  0.02295719  0.98086174     1.39100
O224        O  0.44750104  0.04262208  0.95966591    -1.23200
N225        N  0.74208343  0.24884016  0.99983438    -0.36700
N226        N  0.79863093  0.19271657  0.00955349    -0.57200
N227        N  0.74183467  0.13527773  0.99365500    -0.36700
N228        N  0.68483607  0.19315726  0.98662826    -0.57200
C229        C  0.77115127  0.26898388  0.01333911     0.26900
C230        C  0.71077803  0.26865526  0.00744371     0.26900
C231        C  0.76954313  0.11370848  0.00853137     0.26900
C232        C  0.71041003  0.11369994  0.99132133     0.26900
C233        C  0.82150251  0.22286024  0.00502825     0.35500
C234        C  0.82075203  0.16199061  0.00908638     0.35500
C235        C  0.66405511  0.22453775  0.98105289     0.35500
C236        C  0.66432725  0.16384406  0.97384337     0.35500
C237        C  0.75837820  0.30155665  0.03032728    -0.22000
C238        C  0.72004346  0.30118537  0.02692514    -0.22000
C239        C  0.75567225  0.07784180  0.01524344    -0.22000
C240        C  0.71860270  0.07768954  0.00400531    -0.22000
C241        C  0.85852680  0.21137878  0.00184911    -0.23000
C242        C  0.85812938  0.17271128  0.00494232    -0.23000
C243        C  0.62985059  0.21526360  0.96507021    -0.23000
C244        C  0.62982235  0.17679632  0.96080879    -0.23000
C245        C  0.80902587  0.26043188  0.00705401    -0.18400
C246        C  0.67509580  0.26100381  0.99234345    -0.18400
C247        C  0.67486496  0.12542699  0.97719932    -0.18400
C248        C  0.80766550  0.12459926  0.01366259    -0.18400
H249        H  0.77504551  0.32369287  0.04295530     0.14500
H250        H  0.70127295  0.32321970  0.03619953     0.14500
H251        H  0.77088548  0.05397405  0.02640802     0.14500
H252        H  0.69992632  0.05364144  0.00515449     0.14500
H253        H  0.88320589  0.22898574  0.99859270     0.12800
H254        H  0.88249972  0.15455016  0.00392585     0.12800
H255        H  0.60703579  0.23407989  0.95798034     0.12800
H256        H  0.60662237  0.16032256  0.95000705     0.12800
H257        H  0.74430397  0.22652027  0.98112487     0.26100
H258        H  0.74504925  0.16198172  0.98225102     0.26100
N259        N  0.23627981  0.00176969  0.75321930    -0.36700
N260        N  0.17856007  0.00580652  0.81065583    -0.57200
N261        N  0.12121141  0.99882694  0.75221173    -0.36700
N262        N  0.18022833  0.99056370  0.69569136    -0.57200
C263        C  0.25728493  0.99613299  0.78426427     0.26900
C264        C  0.25821817  0.99300584  0.72360978     0.26900
C265        C  0.09893772  0.99963925  0.78304240     0.26900
C266        C  0.10019600  0.98611328  0.72307043     0.26900
C267        C  0.20919868  0.01174273  0.83251169     0.35500
C268        C  0.14805943  0.01462988  0.83151716     0.35500
C269        C  0.21040823  0.99634375  0.67321633     0.35500
C270        C  0.14977813  0.98916198  0.67308407     0.35500
C271        C  0.29284949  0.98363265  0.77412894    -0.22000
C272        C  0.29349535  0.98189331  0.73586135    -0.22000
C273        C  0.06295635  0.98805894  0.77316943    -0.22000
C274        C  0.06387617  0.97913869  0.73552026    -0.22000
C275        C  0.19822885  0.02331771  0.86786351    -0.23000
C276        C  0.15955581  0.02508047  0.86732623    -0.23000
C277        C  0.19924713  0.99832785  0.63608683    -0.23000
C278        C  0.16086102  0.99350649  0.63593442    -0.23000
C279        C  0.24684214  0.00547404  0.82122423    -0.18400
C280        C  0.24810541  0.99678719  0.68566123    -0.18400
C281        C  0.11225111  0.98272242  0.68516590    -0.18400
C282        C  0.10992533  0.01181018  0.81944064    -0.18400
H283        H  0.31636315  0.97726514  0.79232505     0.14500
H284        H  0.31742738  0.97366170  0.71901520     0.14500
H285        H  0.03847957  0.98611054  0.79112633     0.14500
H286        H  0.04025191  0.96932892  0.71904181     0.14500
H287        H  0.21618784  0.02964514  0.89155658     0.12800
H288        H  0.14197100  0.03292828  0.89081774     0.12800
H289        H  0.21697785  0.00212209  0.61166049     0.12800
H290        H  0.14313408  0.99338748  0.61124703     0.12800
H291        H  0.21068776  0.01569851  0.75186812     0.26100
H292        H  0.14812578  0.00987636  0.75057544     0.26100
N293        N  0.99644831  0.74809176  0.24774778    -0.36700
N294        N  0.00438084  0.80683215  0.19317156    -0.57200
N295        N  0.98476277  0.75286357  0.13458810    -0.36700
N296        N  0.97980663  0.69327650  0.19128199    -0.57200
C297        C  0.01131042  0.77626175  0.26815794     0.26900
C298        C  0.00423080  0.71595536  0.26627862     0.26900
C299        C  0.99934274  0.78123359  0.11340837     0.26900
C300        C  0.98187605  0.72204622  0.11241267     0.26900
C301        C  0.00110940  0.82841660  0.22422289     0.35500
C302        C  0.00244233  0.83019889  0.16336005     0.35500
C303        C  0.97459593  0.67148476  0.22211627     0.35500
C304        C  0.96584435  0.67407939  0.16174095     0.35500
C305        C  0.02938100  0.76211042  0.29955990    -0.22000
C306        C  0.02521223  0.72381481  0.29820541    -0.22000
C307        C  0.00499630  0.76840861  0.07714382    -0.22000
C308        C  0.99356439  0.73135293  0.07638691    -0.22000
C309        C  0.99707701  0.86583111  0.21418730    -0.23000
C310        C  0.99850171  0.86704580  0.17554302    -0.23000
C311        C  0.95746699  0.63797018  0.21222847    -0.23000
C312        C  0.95226126  0.63939491  0.17392195    -0.23000
C313        C  0.00504621  0.81448852  0.26118008    -0.18400
C314        C  0.98783351  0.68081235  0.25838344    -0.18400
C315        C  0.96896248  0.68574017  0.12366875    -0.18400
C316        C  0.00613790  0.81879351  0.12545915    -0.18400
H317        H  0.04316223  0.77786844  0.32161162     0.14500
H318        H  0.03488890  0.70411095  0.31928747     0.14500
H319        H  0.01602836  0.78412713  0.05351584     0.14500
H320        H  0.99437934  0.71320945  0.05207233     0.14500
H321        H  0.99448220  0.88976796  0.23270016     0.12800
H322        H  0.99663376  0.89212326  0.15835483     0.12800
H323        H  0.95063068  0.61451924  0.23044747     0.12800
H324        H  0.94058325  0.61701345  0.15697617     0.12800
H325        H  0.97676402  0.75142065  0.22638516     0.26100
H326        H  0.97457338  0.75501864  0.16179641     0.26100
N327        N  0.24484002  0.74805671  0.46714043    -0.36700
N328        N  0.30115877  0.69437119  0.48641098    -0.57200
N329        N  0.24081924  0.63744561  0.48938492    -0.36700
N330        N  0.18571733  0.69353128  0.46703407    -0.57200
C331        C  0.27666112  0.76631220  0.45758365     0.26900
C332        C  0.21625291  0.76720830  0.45159277     0.26900
C333        C  0.27172624  0.61564188  0.49345810     0.26900
C334        C  0.21180648  0.61470909  0.47930057     0.26900
C335        C  0.32060101  0.72663242  0.49271177     0.35500
C336        C  0.31877495  0.66674749  0.50556674     0.35500
C337        C  0.16443197  0.72498468  0.46831045     0.35500
C338        C  0.16244906  0.66414524  0.47315631     0.35500
C339        C  0.26828776  0.79633849  0.43404282    -0.22000
C340        C  0.22981439  0.79727803  0.43080209    -0.22000
C341        C  0.26205557  0.57841562  0.48665584    -0.22000
C342        C  0.22440020  0.57788741  0.47742726    -0.22000
C343        C  0.35109445  0.71946116  0.51571848    -0.23000
C344        C  0.35041981  0.68139480  0.52323549    -0.23000
C345        C  0.12716287  0.71565908  0.47468005    -0.23000
C346        C  0.12577998  0.67692242  0.47715074    -0.23000
C347        C  0.31070566  0.76195401  0.47706154    -0.18400
C348        C  0.17856683  0.76144665  0.46121480    -0.18400
C349        C  0.17386421  0.62597851  0.47393753    -0.18400
C350        C  0.30781870  0.62826400  0.50522761    -0.18400
H351        H  0.28765145  0.81727571  0.42320264     0.14500
H352        H  0.21356562  0.81865461  0.41649425     0.14500
H353        H  0.28014163  0.55403944  0.48837340     0.14500
H354        H  0.20802113  0.55307496  0.47077678     0.14500
H355        H  0.37165144  0.73939054  0.52604127     0.12800
H356        H  0.37071403  0.66650359  0.54025188     0.12800
H357        H  0.10345949  0.73461896  0.47639693     0.12800
H358        H  0.10076673  0.66012159  0.48185401     0.12800
H359        H  0.24198570  0.72902806  0.48923560     0.26100
H360        H  0.23907474  0.66561209  0.49671558     0.26100
N361        N  0.73682858  0.50366093  0.25037272    -0.36700
N362        N  0.68029367  0.49592177  0.19381514    -0.57200
N363        N  0.62290375  0.51133025  0.25073694    -0.36700
N364        N  0.68105255  0.51629501  0.30786953    -0.57200
C365        C  0.75678197  0.48952201  0.22150566     0.26900
C366        C  0.75698538  0.49687907  0.28167839     0.26900
C367        C  0.60099181  0.49852728  0.22237706     0.26900
C368        C  0.60133418  0.51262282  0.28205587     0.26900
C369        C  0.71062039  0.49890322  0.17105160     0.35500
C370        C  0.64965729  0.49817660  0.17167587     0.35500
C371        C  0.71246412  0.52246630  0.32842223     0.35500
C372        C  0.65168145  0.52866343  0.32844018     0.35500
C373        C  0.78958461  0.47307777  0.23452317    -0.22000
C374        C  0.78966337  0.47759312  0.27265160    -0.22000
C375        C  0.56483199  0.49232908  0.23566488    -0.22000
C376        C  0.56495873  0.50150607  0.27318972    -0.22000
C377        C  0.69931778  0.50303335  0.13412391    -0.23000
C378        C  0.66058647  0.50203651  0.13443302    -0.23000
C379        C  0.70315076  0.53842617  0.36252859    -0.23000
C380        C  0.66460520  0.54218638  0.36267507    -0.23000
C381        C  0.74806495  0.49478201  0.18346369    -0.18400
C382        C  0.74902824  0.51169970  0.31733086    -0.18400
C383        C  0.61329275  0.52481920  0.31805443    -0.18400
C384        C  0.61211367  0.49437980  0.18440214    -0.18400
H385        H  0.81160671  0.46006880  0.21810008     0.14500
H386        H  0.81192255  0.46886415  0.29144934     0.14500
H387        H  0.54066097  0.48277052  0.21983844     0.14500
H388        H  0.54088855  0.50016145  0.29174550     0.14500
H389        H  0.71704800  0.50543179  0.10953376     0.12800
H390        H  0.64253698  0.50394514  0.11004982     0.12800
H391        H  0.72204109  0.54594139  0.38512981     0.12800
H392        H  0.64806423  0.55309107  0.38567935     0.12800
H393        H  0.71423877  0.52207178  0.24806845     0.26100
H394        H  0.64999715  0.52192509  0.24814146     0.26100
O395        O  0.02066264  0.53452125  0.42963205    -0.85400
O396        O  0.97603198  0.47309766  0.44748505    -0.82500
C397        C  0.94848182  0.45251996  0.45557877     0.98000
O398        O  0.91778604  0.46775270  0.46593117    -0.82500
O399        O  0.93691373  0.51209073  0.52729665    -0.85100
C400        C  0.94536187  0.53965791  0.54753529     1.02600
O401        O  0.95429748  0.57088100  0.53221779    -0.77900
O402        O  0.01616997  0.55379745  0.48761683    -0.78100
C403        C  0.03630241  0.54485261  0.46012258     1.02500
O404        O  0.95736977  0.56362125  0.38855525    -0.85400
O405        O  0.91469112  0.50176287  0.39995819    -0.82500
C406        C  0.88238498  0.51519057  0.40785364     0.98100
O407        O  0.87665042  0.53158015  0.43830944    -0.82500
O408        O  0.88813967  0.57331417  0.50021108    -0.85100
C409        C  0.89436119  0.60516288  0.48476782     1.02500
O410        O  0.92488495  0.61132812  0.46827669    -0.77900
O411        O  0.98781916  0.60122815  0.42680711    -0.78100
C412        C  0.97467792  0.59374367  0.39437032     1.02500
Cr413      Cr  0.96609309  0.51931682  0.41927950     1.93700
Cr414      Cr  0.90779684  0.52226440  0.48185323     1.93200
Cr415      Cr  0.96960547  0.58151243  0.47773775     1.39100
O416        O  0.94768333  0.54121786  0.45937067    -1.23200
O417        O  0.03103043  0.92698520  0.52933944    -0.85400
O418        O  0.96679696  0.94646821  0.49074434    -0.82500
C419        C  0.94392853  0.95579637  0.46565218     0.98000
O420        O  0.95644021  0.96627791  0.43381432    -0.82500
O421        O  0.00145386  0.02701852  0.45139394    -0.85100
C422        C  0.02932405  0.04793584  0.45705673     1.02600
O423        O  0.06113547  0.03298955  0.46419180    -0.77900
O424        O  0.04982602  0.98544748  0.52515624    -0.78100
C425        C  0.04096224  0.95760195  0.54501577     1.02500
O426        O  0.05462394  0.88914811  0.46170161    -0.85400
O427        O  0.99017914  0.90068003  0.42569855    -0.82500
C428        C  0.00356561  0.90853067  0.39335865     0.98100
O429        O  0.01747961  0.94040542  0.38717090    -0.82500
O430        O  0.05866503  0.00379304  0.39697006    -0.85100
C431        C  0.09193374  0.99106410  0.40108443     1.02500
O432        O  0.10013310  0.97146808  0.42909058    -0.77900
O433        O  0.09549780  0.92593149  0.48945854    -0.78100
C434        C  0.08723121  0.89484472  0.47345484     1.02500
Cr435      Cr  0.01163846  0.91870219  0.47592913     1.93700
Cr436      Cr  0.00972342  0.98310875  0.41985305     1.93200
Cr437      Cr  0.07372079  0.97784189  0.47623292     1.39100
O438        O  0.03194447  0.95967587  0.45714353    -1.23200
O439        O  0.91820289  0.53398586  0.03139606    -0.85400
O440        O  0.93808616  0.48835116  0.97178000    -0.82500
C441        C  0.94815103  0.46094333  0.95215488     0.98000
O442        O  0.95910695  0.43089860  0.96827550    -0.82500
O443        O  0.01843446  0.45240528  0.01427064    -0.85100
C444        C  0.03796079  0.46008641  0.04251121     1.02600
O445        O  0.02144247  0.47001342  0.07258913    -0.77900
O446        O  0.97621617  0.53003021  0.05104209    -0.78100
C447        C  0.94854462  0.54996717  0.04198773     1.02500
O448        O  0.87784464  0.47013914  0.06126043    -0.85400
O449        O  0.89122917  0.42631849  0.00065782    -0.82500
C450        C  0.89959630  0.39473412  0.01565668     0.98100
O451        O  0.93044602  0.39051077  0.03179675    -0.82500
O452        O  0.98965233  0.40372638  0.07548292    -0.85100
C453        C  0.97330704  0.41053089  0.10667608     1.02500
O454        O  0.95633090  0.44103022  0.11099328    -0.77900
O455        O  0.91452834  0.50248626  0.09825285    -0.78100
C456        C  0.88239378  0.48825121  0.09107792     1.02500
Cr457      Cr  0.90913567  0.47869241  0.01737757     1.93700
Cr458      Cr  0.97329911  0.42227249  0.02331370     1.93200
Cr459      Cr  0.96626115  0.48479059  0.08042060     1.39100
O460        O  0.94924392  0.46167933  0.04051422    -1.23200
N461        N  0.24272922  0.00652393  0.24967345    -0.36700
N462        N  0.29672037  0.99480758  0.30815660    -0.57200
N463        N  0.35531385  0.99342027  0.25060067    -0.36700
N464        N  0.29904899  0.00792106  0.19293151    -0.57200
C465        C  0.22430931  0.01893211  0.28023820     0.26900
C466        C  0.22413192  0.02022189  0.21976798     0.26900
C467        C  0.37655724  0.99200953  0.28210696     0.26900
C468        C  0.37794948  0.00471663  0.22199407     0.26900
C469        C  0.26466677  0.99057585  0.32835633     0.35500
C470        C  0.32506200  0.98042193  0.32884570     0.35500
C471        C  0.26872812  0.00435634  0.17031087     0.35500
C472        C  0.32973704  0.00513625  0.17096893     0.35500
C473        C  0.19467347  0.04196251  0.26960829    -0.22000
C474        C  0.19428008  0.04237427  0.23117536    -0.22000
C475        C  0.41346277  0.00123805  0.27313701    -0.22000
C476        C  0.41423687  0.00963292  0.23537724    -0.22000
C477        C  0.27257245  0.97351285  0.36237811    -0.23000
C478        C  0.31094829  0.96752818  0.36293649    -0.23000
C479        C  0.28005396  0.99921995  0.13354515    -0.23000
C480        C  0.31885837  0.00034276  0.13384830    -0.23000
C481        C  0.22914168  0.00400593  0.31639037    -0.18400
C482        C  0.23147685  0.00992350  0.18266076    -0.18400
C483        C  0.36721938  0.00903756  0.18383304    -0.18400
C484        C  0.36369402  0.98201302  0.31860145    -0.18400
H485        H  0.17415701  0.05518592  0.28771473     0.14500
H486        H  0.17384095  0.05648015  0.21361536     0.14500
H487        H  0.43739822  0.00215939  0.29186427     0.14500
H488        H  0.43887102  0.01795240  0.21950261     0.14500
H489        H  0.25298945  0.96673662  0.38466206     0.12800
H490        H  0.32662738  0.95535589  0.38596101     0.12800
H491        H  0.26231223  0.99645567  0.10903166     0.12800
H492        H  0.33697593  0.99788860  0.10956164     0.12800
H493        H  0.26234572  0.98479264  0.24891405     0.26100
H494        H  0.32764971  0.98432086  0.24844996     0.26100
O495        O  0.01995997  0.06984222  0.96804630    -0.85400
O496        O  0.96018433  0.04834032  0.01313354    -0.82500
C497        C  0.94028450  0.04046479  0.04114581     0.98000
O498        O  0.95629156  0.03127978  0.07184432    -0.82500
O499        O  0.00492417  0.97262011  0.05440777    -0.85100
C500        C  0.03369108  0.95414386  0.04595911     1.02600
O501        O  0.06372916  0.97144863  0.03675989    -0.77900
O502        O  0.04178415  0.01293255  0.97516828    -0.78100
C503        C  0.03082038  0.03879493  0.95392256     1.02500
O504        O  0.04607732  0.11415029  0.03098519    -0.85400
O505        O  0.98452568  0.09946016  0.07305275    -0.82500
C506        C  0.99745387  0.09296648  0.10586051     0.98100
O507        O  0.01746544  0.06469652  0.11213972    -0.82500
O508        O  0.06474218  0.00544445  0.10167859    -0.85100
C509        C  0.09599514  0.02167042  0.09387416     1.02500
O510        O  0.09955242  0.03906269  0.06356430    -0.77900
O511        O  0.08581577  0.07823912  0.00076354    -0.78100
C512        C  0.07758285  0.10960947  0.01592506     1.02500
Cr513      Cr  0.00400173  0.08040228  0.02233362     1.93700
Cr514      Cr  0.01188153  0.01954386  0.08221708     1.93200
Cr515      Cr  0.06987054  0.02631865  0.02009603     1.39100
O516        O  0.02877650  0.04243976  0.04186566    -1.23200
N517        N  0.97599890  0.24951728  0.25220707    -0.36700
N518        N  0.98886254  0.19153397  0.30690749    -0.57200
N519        N  0.98831302  0.24951025  0.36441822    -0.36700
N520        N  0.97289445  0.30693033  0.30777109    -0.57200
C521        C  0.96605244  0.21841096  0.23311509     0.26900
C522        C  0.96238414  0.27902718  0.23281560     0.26900
C523        C  0.98950115  0.21807668  0.38593467     0.26900
C524        C  0.97634751  0.27815989  0.38644116     0.26900
C525        C  0.99433696  0.17134849  0.27519883     0.35500
C526        C  0.00369779  0.17149581  0.33552147     0.35500
C527        C  0.97839914  0.32892167  0.27721571     0.35500
C528        C  0.97836530  0.32883783  0.33810104     0.35500
C529        C  0.94465073  0.22819745  0.20201563    -0.22000
C530        C  0.94260258  0.26671458  0.20166717    -0.22000
C531        C  0.97898749  0.22709347  0.42232945    -0.22000
C532        C  0.97028947  0.26484739  0.42252663    -0.22000
C533        C  0.01226603  0.13788217  0.28364503    -0.23000
C534        C  0.01790018  0.13778189  0.32193955    -0.23000
C535        C  0.98758211  0.36515840  0.28814062    -0.23000
C536        C  0.98677959  0.36530005  0.32684504    -0.23000
C537        C  0.98184939  0.18275626  0.23923032    -0.18400
C538        C  0.97202073  0.31654567  0.24008174    -0.18400
C539        C  0.97401453  0.31652306  0.37563269    -0.18400
C540        C  0.00167380  0.18203086  0.37390426    -0.18400
H541        H  0.93374995  0.20962117  0.18056379     0.14500
H542        H  0.92949287  0.28379870  0.18017191     0.14500
H543        H  0.97791986  0.20856426  0.44643464     0.14500
H544        H  0.96155007  0.28088977  0.44677080     0.14500
H545        H  0.02011530  0.11574902  0.26440076     0.12800
H546        H  0.03075672  0.11529323  0.33788094     0.12800
H547        H  0.99335824  0.38910663  0.27022284     0.12800
H548        H  0.99224239  0.38931902  0.34465596     0.12800
H549        H  0.99662176  0.25107845  0.27290950     0.26100
H550        H  0.99893226  0.25193314  0.33736721     0.26100
N551        N  0.24091471  0.25289699  0.01274581    -0.36700
N552        N  0.18318269  0.30882876  0.01908654    -0.57200
N553        N  0.24003218  0.36681031  0.00465593    -0.36700
N554        N  0.29840101  0.30936786  0.00133171    -0.57200
C555        C  0.21157357  0.23209701  0.02492019     0.26900
C556        C  0.27220196  0.23279923  0.01994990     0.26900
C557        C  0.21113027  0.38848797  0.01678974     0.26900
C558        C  0.27121369  0.38882741  0.00294113     0.26900
C559        C  0.16081983  0.27816817  0.01547415     0.35500
C560        C  0.16058206  0.33923001  0.01728555     0.35500
C561        C  0.31932634  0.27809491  0.99550362     0.35500
C562        C  0.31862984  0.33892602  0.98831763     0.35500
C563        C  0.22421081  0.19871883  0.04057650    -0.22000
C564        C  0.26263698  0.19930540  0.03775215    -0.22000
C565        C  0.22406897  0.42487384  0.02242458    -0.22000
C566        C  0.26177230  0.42518524  0.01334808    -0.22000
C567        C  0.12363737  0.28898614  0.01183119    -0.23000
C568        C  0.12340594  0.32772924  0.01338722    -0.23000
C569        C  0.35342231  0.28776557  0.97941409    -0.23000
C570        C  0.35313225  0.32628813  0.97506630    -0.23000
C571        C  0.17367086  0.24070279  0.01828100    -0.18400
C572        C  0.30824846  0.24121250  0.00587389    -0.18400
C573        C  0.30750782  0.37729040  0.99070169    -0.18400
C574        C  0.17292058  0.37709272  0.02046877    -0.18400
H575        H  0.20743338  0.17587755  0.05185777     0.14500
H576        H  0.28131330  0.17683395  0.04623747     0.14500
H577        H  0.20784201  0.44896027  0.03137742     0.14500
H578        H  0.28004431  0.44955610  0.01422554     0.14500
H579        H  0.09924938  0.27088317  0.00921681     0.12800
H580        H  0.09872149  0.34540734  0.01161401     0.12800
H581        H  0.37622208  0.26909890  0.97195805     0.12800
H582        H  0.37596410  0.34299822  0.96373230     0.12800
H583        H  0.23905410  0.27598886  0.99487833     0.26100
H584        H  0.23790681  0.33961234  0.99442129     0.26100
C585        C  0.12417324  0.15208339  0.98446244    -0.26400
C586        C  0.10378746  0.14193000  0.01658612    -0.14500
C587        C  0.10597325  0.16477449  0.04903600     0.36200
C588        C  0.12727967  0.19799740  0.04823930    -0.25800
C589        C  0.14714759  0.20847502  0.01605301    -0.15100
C590        C  0.14622710  0.18508060  0.98400899     0.37300
N591        N  0.16748606  0.19513763  0.95112512    -0.89300
H592        H  0.12240100  0.13463905  0.95962689     0.18400
H593        H  0.12938156  0.21529315  0.07316019     0.18400
N594        N  0.08672983  0.15390519  0.08288430    -0.88400
H595        H  0.16280866  0.17565868  0.92967921     0.35700
H596        H  0.19602690  0.19326264  0.95789673     0.40800
H597        H  0.09184636  0.17329422  0.10431737     0.40500
H598        H  0.09785584  0.12827415  0.09191469     0.35300
C599        C  0.96792351  0.12412547  0.20291861    -0.26400
C600        C  0.98690073  0.15856424  0.20555531    -0.14500
C601        C  0.00717936  0.17221923  0.17418904     0.36200
C602        C  0.00702390  0.15204926  0.14050729    -0.25800
C603        C  0.98906514  0.11717624  0.13815101    -0.15100
C604        C  0.96976784  0.10267359  0.16984868     0.37300
N605        N  0.95194226  0.06635881  0.16827983    -0.89300
H606        H  0.95187474  0.11394337  0.22674411     0.18400
H607        H  0.02240881  0.16291147  0.11663359     0.18400
N608        N  0.02824532  0.20655970  0.17668035    -0.88400
H609        H  0.93740196  0.06077509  0.19320232     0.35700
H610        H  0.97303549  0.04604167  0.16638757     0.40800
H611        H  0.01825793  0.22504638  0.15612395     0.40500
H612        H  0.05636584  0.20057170  0.17055914     0.35300
C613        C  0.13531128  0.98807597  0.14182591    -0.26400
C614        C  0.13022048  0.01885912  0.11767688    -0.14500
C615        C  0.16010064  0.04524500  0.11339141     0.36200
C616        C  0.19406049  0.04007602  0.13248864    -0.25800
C617        C  0.19894359  0.00961027  0.15663585    -0.15100
C618        C  0.16929610  0.98349212  0.16154636     0.37300
N619        N  0.17355372  0.95261577  0.18708487    -0.89300
H620        H  0.11311986  0.96736385  0.14515078     0.18400
H621        H  0.21612244  0.06104190  0.12984477     0.18400
N622        N  0.15591363  0.07807372  0.09035111    -0.88400
H623        H  0.15239428  0.95453850  0.20738128     0.35700
H624        H  0.16939339  0.92767351  0.17214397     0.40800
H625        H  0.17680276  0.07759682  0.06968759     0.40500
H626        H  0.16049053  0.10176313  0.10710016     0.35300
C627        C  0.12955986  0.41072257  0.06430767    -0.26400
C628        C  0.14373424  0.40630347  0.02780566    -0.14500
C629        C  0.12751371  0.42708971  0.99824560     0.36200
C630        C  0.09553223  0.44892260  0.00501561    -0.25800
C631        C  0.07862492  0.45019675  0.04076680    -0.15100
C632        C  0.09747258  0.43264613  0.07119366     0.37300
N633        N  0.08385537  0.43489249  0.10895211    -0.89300
H634        H  0.14240834  0.39546405  0.08731726     0.18400
H635        H  0.08200329  0.46256334  0.98137994     0.18400
N636        N  0.14160418  0.42471523  0.96066716    -0.88400
H637        H  0.05698611  0.42311800  0.11033500     0.35700
H638        H  0.08224643  0.46326468  0.11640923     0.40800
H639        H  0.16965527  0.43359310  0.96065159     0.40500
H640        H  0.14069557  0.39658579  0.95221558     0.35300
C641        C  0.95025047  0.39397279  0.17030704    -0.26400
C642        C  0.97405284  0.38489861  0.13981959    -0.14500
C643        C  0.99733232  0.35285782  0.14300307     0.36200
C644        C  0.99794249  0.33261779  0.17685178    -0.25800
C645        C  0.97444203  0.34233338  0.20720876    -0.15100
C646        C  0.94975581  0.37270356  0.20331017     0.37300
N647        N  0.92297228  0.38109368  0.23213939    -0.89300
H648        H  0.93098068  0.41747464  0.16849945     0.18400
H649        H  0.01589420  0.30810326  0.17905301     0.18400
N650        N  0.01967675  0.33942177  0.11241969    -0.88400
H651        H  0.92723137  0.40891687  0.24062929     0.35700
H652        H  0.89602606  0.37915755  0.22053667     0.40800
H653        H  0.03879900  0.36031129  0.10449694     0.40500
H654        H  0.00185829  0.33354694  0.08983780     0.35300
C655        C  0.98775368  0.10207686  0.44324432    -0.26400
C656        C  0.02475379  0.08850343  0.44739694    -0.14500
C657        C  0.05480088  0.11021365  0.43277190     0.36200
C658        C  0.04680092  0.14210265  0.41049633    -0.25800
C659        C  0.00952810  0.15261929  0.40276513    -0.15100
C660        C  0.97978581  0.13330321  0.42046456     0.37300
N661        N  0.94149279  0.14454624  0.41394491    -0.89300
H662        H  0.96449444  0.08621642  0.45505906     0.18400
H663        H  0.06958540  0.15764433  0.39742176     0.18400
N664        N  0.09305126  0.09853404  0.43838325    -0.88400
H665        H  0.92290496  0.12766239  0.42933122     0.35700
H666        H  0.93548431  0.13994048  0.38560431     0.40800
H667        H  0.09868265  0.10048935  0.46710773     0.40500
H668        H  0.11163259  0.11703851  0.42495949     0.35300
C669        C  0.16288558  0.98208709  0.32347173    -0.26400
C670        C  0.19426126  0.00032898  0.33953429    -0.14500
C671        C  0.18963061  0.01958483  0.37356970     0.36200
C672        C  0.15456030  0.01875684  0.39171685    -0.25800
C673        C  0.12332409  0.00038462  0.37571209    -0.15100
C674        C  0.12729029  0.98306619  0.34034645     0.37300
N675        N  0.09632706  0.96555073  0.32117096    -0.89300
H676        H  0.16583404  0.96811335  0.29661746     0.18400
H677        H  0.15188710  0.03179869  0.41906091     0.18400
N678        N  0.22023731  0.04030320  0.38955942    -0.88400
H679        H  0.09345435  0.97893376  0.29516502     0.35700
H680        H  0.07107591  0.97029238  0.33525980     0.40800
H681        H  0.21182612  0.06831971  0.39232922     0.40500
H682        H  0.22529815  0.02960512  0.41644111     0.35300
C683        C  0.98781655  0.39563209  0.44594229    -0.26400
C684        C  0.95167716  0.41177866  0.44634033    -0.14500
C685        C  0.92181916  0.39211195  0.42896274     0.36200
C686        C  0.92959121  0.35941601  0.40809476    -0.25800
C687        C  0.96639408  0.34565221  0.40468621    -0.15100
C688        C  0.99557433  0.36291807  0.42541841     0.37300
N689        N  0.03361784  0.34927640  0.42486429    -0.89300
H690        H  0.01095741  0.41008854  0.45955232     0.18400
H691        H  0.90717827  0.34573471  0.39262518     0.18400
N692        N  0.88433192  0.40694732  0.42988057    -0.88400
H693        H  0.05018993  0.36950008  0.41129680     0.35700
H694        H  0.03606187  0.32445910  0.40950469     0.40800
H695        H  0.87507482  0.40564939  0.45770599     0.40500
H696        H  0.86601384  0.39000141  0.41433525     0.35300
C697        C  0.78590943  0.48906381  0.37219935    -0.26400
C698        C  0.78143150  0.51535792  0.34328579    -0.14500
C699        C  0.81104031  0.54041896  0.33469508     0.36200
C700        C  0.84507999  0.53813747  0.35438230    -0.25800
C701        C  0.84983392  0.51144832  0.38290042    -0.15100
C702        C  0.81959872  0.48744788  0.39274099     0.37300
N703        N  0.82325968  0.46152391  0.42351479    -0.89300
H704        H  0.76330340  0.46945712  0.37828316     0.18400
H705        H  0.86744341  0.55800439  0.34815339     0.18400
N706        N  0.80656376  0.56793291  0.30561275    -0.88400
H707        H  0.79895727  0.44510602  0.42628256     0.35700
H708        H  0.82553986  0.47718147  0.44819623     0.40800
H709        H  0.82750434  0.56348815  0.28550294     0.40500
H710        H  0.81089504  0.59451907  0.31735890     0.35300
C711        C  0.80785880  0.52319715  0.16109003    -0.26400
C712        C  0.78028790  0.49516863  0.15686473    -0.14500
C713        C  0.78682444  0.46514999  0.13231451     0.36200
C714        C  0.82065850  0.46406571  0.11210024    -0.25800
C715        C  0.84882683  0.49204417  0.11604769    -0.15100
C716        C  0.84198450  0.52230978  0.14129486     0.37300
N717        N  0.86800209  0.55259678  0.14825452    -0.89300
H718        H  0.80307918  0.54578158  0.18091937     0.18400
H719        H  0.82524109  0.44052441  0.09339783     0.18400
N720        N  0.75951445  0.43544738  0.12867576    -0.88400
H721        H  0.85499468  0.57767997  0.14013399     0.35700
H722        H  0.89255703  0.55085506  0.13269540     0.40800
H723        H  0.75775873  0.42156193  0.15452200     0.40500
H724        H  0.76846069  0.41550710  0.10911022     0.35300
C725        C  0.09358007  0.57107258  0.42998608    -0.26400
C726        C  0.07710382  0.55423218  0.46174998    -0.14500
C727        C  0.09730822  0.55488535  0.49614662     0.36200
C728        C  0.13051976  0.57612105  0.49902372    -0.25800
C729        C  0.14417532  0.59672708  0.46829813    -0.15100
C730        C  0.12693074  0.59231673  0.43297196     0.37300
N731        N  0.14237539  0.61117114  0.40071855    -0.89300
H732        H  0.07879807  0.57042664  0.40340311     0.18400
H733        H  0.14450353  0.57834753  0.52594794     0.18400
N734        N  0.08464412  0.53474577  0.52871118    -0.88400
H735        H  0.12625928  0.60543177  0.37686170     0.35700
H736        H  0.16904085  0.59984087  0.39582313     0.40800
H737        H  0.07998177  0.50669471  0.52122698     0.40500
H738        H  0.05951920  0.54631601  0.53839473     0.35300
C739        C  0.13026993  0.80512037  0.43612001    -0.26400
C740        C  0.15475628  0.79536833  0.46505202    -0.14500
C741        C  0.16008757  0.82034040  0.49539547     0.36200
C742        C  0.13957692  0.85409602  0.49712448    -0.25800
C743        C  0.11390449  0.86326315  0.46877323    -0.15100
C744        C  0.11002849  0.83879555  0.43754310     0.37300
N745        N  0.08553506  0.84817280  0.40697920    -0.89300
H746        H  0.12726890  0.78676131  0.41205749     0.18400
H747        H  0.14272874  0.87235999  0.52122690     0.18400
N748        N  0.18613486  0.81116876  0.52465298    -0.88400
H749        H  0.06564749  0.82662488  0.40418194     0.35700
H750        H  0.10152745  0.84915973  0.38235827     0.40800
H751        H  0.20618225  0.83269902  0.52609381     0.40500
H752        H  0.17142624  0.81059140  0.55006282     0.35300
C753        C  0.99227295  0.85991810  0.06965830    -0.26400
C754        C  0.01767533  0.84810155  0.09737967    -0.14500
C755        C  0.05269063  0.86662863  0.10039852     0.36200
C756        C  0.06006290  0.89891795  0.07869500    -0.25800
C757        C  0.03283786  0.91323760  0.05401462    -0.15100
C758        C  0.99973558  0.89184147  0.04746472     0.37300
N759        N  0.97237128  0.90280586  0.01982548    -0.89300
H760        H  0.96570526  0.84526726  0.06638770     0.18400
H761        H  0.08557165  0.91483177  0.08398612     0.18400
N762        N  0.08002394  0.85379381  0.12698666    -0.88400
H763        H  0.96955909  0.88046088  0.00099668     0.35700
H764        H  0.98216367  0.92545022  0.00379792     0.40800
H765        H  0.10482150  0.84783083  0.11240724     0.40500
H766        H  0.08564875  0.87576875  0.14563333     0.35300
C767        C  0.92670273  0.64506239  0.08465255    -0.26400
C768        C  0.96341126  0.65633908  0.09431486    -0.14500
C769        C  0.99432702  0.63684580  0.07876928     0.36200
C770        C  0.98775368  0.60550559  0.05612804    -0.25800
C771        C  0.95132837  0.59087645  0.05072670    -0.15100
C772        C  0.92020679  0.61217459  0.06336964     0.37300
N773        N  0.88235636  0.59969299  0.05630836    -0.89300
H774        H  0.90306388  0.66042826  0.09610099     0.18400
H775        H  0.01194726  0.59002503  0.04600768     0.18400
N776        N  0.03279521  0.64594856  0.08756977    -0.88400
H777        H  0.86301137  0.61926098  0.06654074     0.35700
H778        H  0.87779648  0.57502401  0.07160580     0.40800
H779        H  0.03509419  0.66776134  0.10692543     0.40500
H780        H  0.04573289  0.65514699  0.06282977     0.35300
C781        C  0.95997968  0.66879273  0.32077421    -0.26400
C782        C  0.98242671  0.65525509  0.29120747    -0.14500
C783        C  0.00394326  0.62230202  0.29692353     0.36200
C784        C  0.00205925  0.60391128  0.33176313    -0.25800
C785        C  0.98065641  0.61832369  0.36161880    -0.15100
C786        C  0.95962657  0.65149964  0.35608915     0.37300
N787        N  0.93720600  0.66816994  0.38517368    -0.89300
H788        H  0.94394937  0.69441931  0.31685007     0.18400
H789        H  0.01758710  0.57797229  0.33564291     0.18400
N790        N  0.02872078  0.60728508  0.26883804    -0.88400
H791        H  0.94753141  0.69533865  0.38978375     0.35700
H792        H  0.94034151  0.65393705  0.41055597     0.40800
H793        H  0.02946823  0.62398805  0.24476475     0.40500
H794        H  0.01807899  0.58104447  0.26087047     0.35300
C795        C  0.97610422  0.83362107  0.32191622    -0.26400
C796        C  0.00398960  0.83963936  0.29438710    -0.14500
C797        C  0.03321532  0.86524443  0.30141768     0.36200
C798        C  0.03260227  0.88614991  0.33462957    -0.25800
C799        C  0.00377230  0.88178755  0.36148037    -0.15100
C800        C  0.97589970  0.85417276  0.35568295     0.37300
N801        N  0.94780770  0.84691180  0.38379960    -0.89300
H802        H  0.95468294  0.81242426  0.31708802     0.18400
H803        H  0.05529277  0.90568889  0.33993284     0.18400
N804        N  0.06370901  0.86937092  0.27517583    -0.88400
H805        H  0.93018751  0.82485892  0.37547729     0.35700
H806        H  0.93086707  0.87075085  0.38572088     0.40800
H807        H  0.07817164  0.84381191  0.27435693     0.40500
H808        H  0.08293329  0.88959196  0.28452302     0.35300
C809        C  0.06208050  0.99040785  0.86620629    -0.26400
C810        C  0.08007263  0.02023926  0.84767542    -0.14500
C811        C  0.07287574  0.05755310  0.85920404     0.36200
C812        C  0.05171623  0.06393449  0.89203860    -0.25800
C813        C  0.03761950  0.03365760  0.91318836    -0.15100
C814        C  0.04020917  0.99683023  0.89839421     0.37300
N815        N  0.02274042  0.96580047  0.91774019    -0.89300
H816        H  0.06683972  0.96187220  0.85672222     0.18400
H817        H  0.04940488  0.09225970  0.90294674     0.18400
N818        N  0.08844134  0.08866479  0.83845766    -0.88400
H819        H  0.02756406  0.94059091  0.90349276     0.35700
H820        H  0.99368408  0.97027076  0.91726600     0.40800
H821        H  0.11768297  0.08788830  0.84119512     0.40500
H822        H  0.07977130  0.11417783  0.85010942     0.35300
C823        C  0.06594108  0.93067501  0.60459813    -0.26400
C824        C  0.04775216  0.96040020  0.58606089    -0.14500
C825        C  0.04455600  0.99541524  0.60455440     0.36200
C826        C  0.06257031  0.00117027  0.63918974    -0.25800
C827        C  0.08431532  0.97268936  0.65550045    -0.15100
C828        C  0.08468637  0.93675873  0.63885541     0.37300
N829        N  0.10631805  0.90715140  0.65543111    -0.89300
H830        H  0.06884786  0.90370247  0.59080157     0.18400
H831        H  0.06203111  0.02884638  0.65186283     0.18400
N832        N  0.02471411  0.02586390  0.58719845    -0.88400
H833        H  0.12649877  0.89858196  0.63590335     0.35700
H834        H  0.08828104  0.88442750  0.66054092     0.40800
H835        H  0.04350607  0.04828213  0.58365091     0.40500
H836        H  0.00352268  0.03454627  0.60556862     0.35300
C837        C  0.88233479  0.04942499  0.00328260    -0.26400
C838        C  0.89968707  0.05031338  0.03880092    -0.14500
C839        C  0.88217407  0.07081546  0.06793385     0.36200
C840        C  0.85075219  0.09350479  0.05970344    -0.25800
C841        C  0.83596332  0.09524594  0.02326112    -0.15100
C842        C  0.85071910  0.07167652  0.99539241     0.37300
N843        N  0.83505545  0.07215698  0.95838583    -0.89300
H844        H  0.89522950  0.03377607  0.98062339     0.18400
H845        H  0.83884614  0.11129858  0.08128460     0.18400
N846        N  0.89808011  0.07100259  0.10493672    -0.88400
H847        H  0.82661423  0.04476538  0.95179229     0.35700
H848        H  0.85624608  0.08009941  0.93959013     0.40800
H849        H  0.89518610  0.04379772  0.11580170     0.40500
H850        H  0.88279397  0.08869791  0.12265981     0.35300
C851        C  0.85912884  0.29826234  0.03697097    -0.26400
C852        C  0.83555820  0.29263318  0.00624222    -0.14500
C853        C  0.83174059  0.32127646  0.97896401     0.36200
C854        C  0.85170949  0.35517983  0.98280001    -0.25800
C855        C  0.87528976  0.36096826  0.01372007    -0.15100
C856        C  0.87872039  0.33217430  0.04135954     0.37300
N857        N  0.90162613  0.33767990  0.07422680    -0.89300
H858        H  0.86079075  0.27676896  0.05853586     0.18400
H859        H  0.84918090  0.37668791  0.96134160     0.18400
N860        N  0.80697909  0.31608251  0.94768720    -0.88400
H861        H  0.90150336  0.31371210  0.09130873     0.35700
H862        H  0.88952260  0.35932030  0.08992343     0.40800
H863        H  0.82270452  0.31920616  0.92306999     0.40500
H864        H  0.78681278  0.33743586  0.94831130     0.35300
C865        C  0.42016309  0.06250610  0.10786793    -0.26400
C866        C  0.43696298  0.03263185  0.08843526    -0.14500
C867        C  0.43675271  0.99645097  0.10499145     0.36200
C868        C  0.41665106  0.99001746  0.13833356    -0.25800
C869        C  0.39631948  0.01903329  0.15534479    -0.15100
C870        C  0.39965644  0.05614339  0.14100403     0.37300
N871        N  0.38130560  0.08764890  0.15831859    -0.89300
H872        H  0.42002747  0.09042896  0.09556440     0.18400
H873        H  0.41464969  0.96166946  0.14944769     0.18400
N874        N  0.45520987  0.96567757  0.08684664    -0.88400
H875        H  0.36017446  0.09683768  0.14009731     0.35700
H876        H  0.36830428  0.08009236  0.18351155     0.40800
H877        H  0.43508737  0.94491518  0.08127336     0.40500
H878        H  0.47482344  0.95443420  0.10560180     0.35300
C879        C  0.30080104  0.04234554  0.84456650    -0.26400
C880        C  0.27850965  0.00984780  0.84815255    -0.14500
C881        C  0.29231170  0.97900460  0.86920510     0.36200
C882        C  0.32812515  0.98137646  0.88555457    -0.25800
C883        C  0.35064990  0.01354738  0.88127776    -0.15100
C884        C  0.33672491  0.04454721  0.86056584     0.37300
N885        N  0.35814383  0.07853985  0.85507133    -0.89300
H886        H  0.29086588  0.06557241  0.82749264     0.18400
H887        H  0.33808788  0.95817087  0.90259230     0.18400
N888        N  0.27141298  0.94458189  0.87361160    -0.88400
H889        H  0.36268205  0.08168732  0.82623603     0.35700
H890        H  0.38473880  0.07671046  0.86727820     0.40800
H891        H  0.24513379  0.94613398  0.86068294     0.40500
H892        H  0.26619444  0.94094662  0.90227229     0.35300
C893        C  0.38220137  0.16603300  0.02236166    -0.26400
C894        C  0.37065814  0.13846018  0.99657558    -0.14500
C895        C  0.34117960  0.14631932  0.97149577     0.36200
C896        C  0.32266878  0.18109082  0.97373440    -0.25800
C897        C  0.33355562  0.20842468  0.00009756    -0.15100
C898        C  0.36375133  0.20095861  0.02453994     0.37300
N899        N  0.37545954  0.22877931  0.05133096    -0.89300
H900        H  0.40611255  0.16044170  0.04038298     0.18400
H901        H  0.29911093  0.18680583  0.95529703     0.18400
N902        N  0.33068971  0.11923934  0.94345392    -0.88400
H903        H  0.39845085  0.21906809  0.06683321     0.35700
H904        H  0.35341428  0.23255370  0.07037033     0.40800
H905        H  0.35348112  0.11629788  0.92515452     0.40500
H906        H  0.30830389  0.12929732  0.92730117     0.35300
C907        C  0.59710662  0.06792584  0.93086986    -0.26400
C908        C  0.57706665  0.05556183  0.96269342    -0.14500
C909        C  0.59379264  0.06000904  0.99844341     0.36200
C910        C  0.62698719  0.08095761  0.00223211    -0.25800
C911        C  0.64490995  0.09658918  0.97087730    -0.15100
C912        C  0.63102520  0.08803816  0.93465367     0.37300
N913        N  0.65010420  0.10059647  0.90146301    -0.89300
H914        H  0.58512255  0.06441611  0.90314064     0.18400
H915        H  0.63785032  0.08658858  0.03008356     0.18400
N916        N  0.57619088  0.04475559  0.03133371    -0.88400
H917        H  0.67749871  0.08998404  0.90212726     0.35700
H918        H  0.65172095  0.12992918  0.90168683     0.40800
H919        H  0.57055203  0.06690606  0.04973702     0.40500
H920        H  0.59534246  0.02669966  0.04439607     0.35300
C921        C  0.45157317  0.16955987  0.82228711    -0.26400
C922        C  0.47674545  0.15863855  0.79394835    -0.14500
C923        C  0.50206299  0.12920831  0.80082332     0.36200
C924        C  0.50197013  0.11121740  0.83588333    -0.25800
C925        C  0.47738067  0.12261766  0.86456399    -0.15100
C926        C  0.45156191  0.15201736  0.85753313     0.37300
N927        N  0.42452777  0.16426959  0.88491077    -0.89300
H928        H  0.43269410  0.19295539  0.81733703     0.18400
H929        H  0.52081047  0.08773135  0.84058208     0.18400
N930        N  0.52846926  0.11825234  0.77256458    -0.88400
H931        H  0.43046757  0.19239911  0.89111951     0.35700
H932        H  0.42717064  0.14949009  0.91005310     0.40800
H933        H  0.52415671  0.08974405  0.76678175     0.40500
H934        H  0.55555154  0.12134309  0.78358842     0.35300
C935        C  0.40154402  0.94053356  0.36077337    -0.26400
C936        C  0.39212827  0.97702478  0.34891005    -0.14500
C937        C  0.40818104  0.00827234  0.36760903     0.36200
C938        C  0.43054243  0.00220283  0.39933065    -0.25800
C939        C  0.43632253  0.96587553  0.41403599    -0.15100
C940        C  0.42338035  0.93467462  0.39320864     0.37300
N941        N  0.43025196  0.89710285  0.40601038    -0.89300
H942        H  0.39007087  0.91647912  0.34601643     0.18400
H943        H  0.44075573  0.02657825  0.41449328     0.18400
N944        N  0.40069867  0.04657176  0.35681750    -0.88400
H945        H  0.44437666  0.88271947  0.38470377     0.35700
H946        H  0.40428687  0.88386642  0.41027909     0.40800
H947        H  0.38231814  0.04838092  0.33410411     0.40500
H948        H  0.42616107  0.05855981  0.34814307     0.35300
C949        C  0.38804317  0.83650563  0.48234306    -0.26400
C950        C  0.36833607  0.86722992  0.49757891    -0.14500
C951        C  0.32943418  0.86343818  0.50477388     0.36200
C952        C  0.31244069  0.82818341  0.50013550    -0.25800
C953        C  0.33221797  0.79721876  0.48532072    -0.15100
C954        C  0.37010531  0.80203644  0.47516639     0.37300
N955        N  0.39024790  0.77236246  0.45703785    -0.89300
H956        H  0.41776262  0.83932014  0.47601609     0.18400
H957        H  0.28287640  0.82522805  0.50708496     0.18400
N958        N  0.30608370  0.89428433  0.51618355    -0.88400
H959        H  0.41393020  0.76610696  0.47326389     0.35700
H960        H  0.39960096  0.78237715  0.43103588     0.40800
H961        H  0.32107888  0.91946305  0.51761815     0.40500
H962        H  0.29553564  0.88822349  0.54291102     0.35300
C963        C  0.33666493  0.02572258  0.63295155    -0.26400
C964        C  0.34732358  0.99112862  0.61754949    -0.14500
C965        C  0.32386196  0.95925934  0.62302366     0.36200
C966        C  0.29029494  0.96271247  0.64289539    -0.25800
C967        C  0.27946128  0.99719226  0.65816794    -0.15100
C968        C  0.30304021  0.02914602  0.65339383     0.37300
N969        N  0.29374131  0.06532164  0.66872901    -0.89300
H970        H  0.35410482  0.05038331  0.62839271     0.18400
H971        H  0.27321023  0.93787046  0.64785922     0.18400
N972        N  0.33404775  0.92262396  0.60988216    -0.88400
H973        H  0.31387282  0.07174180  0.68913069     0.35700
H974        H  0.26761741  0.06499432  0.68211112     0.40800
H975        H  0.36086236  0.91622072  0.61982258     0.40500
H976        H  0.33518871  0.92309634  0.58074981     0.35300
C977        C  0.49150924  0.10312405  0.56509362    -0.26400
C978        C  0.45518312  0.09052030  0.55540166    -0.14500
C979        C  0.42408043  0.11403434  0.56324972     0.36200
C980        C  0.42964758  0.14713263  0.58434652    -0.25800
C981        C  0.46552097  0.15702993  0.59752245    -0.15100
C982        C  0.49692182  0.13571098  0.58655862     0.37300
N983        N  0.53386642  0.14568577  0.59972653    -0.89300
H984        H  0.51568812  0.08583727  0.55854912     0.18400
H985        H  0.40571003  0.16404728  0.59252216     0.18400
N986        N  0.38678065  0.10307207  0.55215997    -0.88400
H987        H  0.55378214  0.12618342  0.59051559     0.35700
H988        H  0.54120605  0.17141475  0.58747946     0.40800
H989        H  0.38595851  0.10347019  0.52283337     0.40500
H990        H  0.36704865  0.12281122  0.56126959     0.35300
C991        C  0.34647757  0.59510245  0.55345298    -0.26400
C992        C  0.33672442  0.59974175  0.51550976    -0.14500
C993        C  0.35750210  0.58031821  0.48778554     0.36200
C994        C  0.38850217  0.55872245  0.49864074    -0.25800
C995        C  0.40157790  0.55844056  0.53592263    -0.15100
C996        C  0.37922004  0.57570778  0.56384051     0.37300
N997        N  0.39077530  0.57725303  0.60224067    -0.89300
H998        H  0.33052697  0.60972309  0.57482707     0.18400
H999        H  0.40502034  0.54535945  0.47685272     0.18400
N1000       N  0.34954922  0.58343833  0.44828557    -0.88400
H1001       H  0.41640948  0.59162545  0.60354364     0.35700
H1002       H  0.39453427  0.54975442  0.61196957     0.40800
H1003       H  0.32666159  0.60088025  0.44286342     0.40500
H1004       H  0.37280190  0.59622514  0.43550699     0.35300
C1005       C  0.57542486  0.56706533  0.35958139    -0.26400
C1006       C  0.58448943  0.53054002  0.34786544    -0.14500
C1007       C  0.56969005  0.49960378  0.36754051     0.36200
C1008       C  0.54835129  0.50549422  0.40002854    -0.25800
C1009       C  0.54298921  0.54191476  0.41467794    -0.15100
C1010       C  0.55537466  0.57315023  0.39297434     0.37300
N1011       N  0.55057930  0.61117377  0.40518055    -0.89300
H1012       H  0.58656226  0.59099801  0.34424781     0.18400
H1013       H  0.53876417  0.48105478  0.41561512     0.18400
N1014       N  0.57823474  0.46206349  0.35581270    -0.88400
H1015       H  0.56535866  0.61500466  0.43021192     0.35700
H1016       H  0.52193976  0.61592352  0.40978479     0.40800
H1017       H  0.55284512  0.44797011  0.35098783     0.40500
H1018       H  0.59208143  0.44843903  0.37785104     0.35300
C1019       C  0.54504539  0.36014947  0.58726282    -0.26400
C1020       C  0.50832939  0.35006922  0.59776613    -0.14500
C1021       C  0.47768537  0.36960601  0.58230946     0.36200
C1022       C  0.48444852  0.40206808  0.56076189    -0.25800
C1023       C  0.52133470  0.41534147  0.55424858    -0.15100
C1024       C  0.55187851  0.39217644  0.56514323     0.37300
N1025       N  0.59001699  0.40077889  0.55526273    -0.89300
H1026       H  0.56862110  0.34397367  0.59774426     0.18400
H1027       H  0.46065782  0.41859291  0.55135987     0.18400
N1028       N  0.43988526  0.35767283  0.59050925    -0.88400
H1029       H  0.59787803  0.42635961  0.56719895     0.35700
H1030       H  0.59167994  0.40314257  0.52605991     0.40800
H1031       H  0.43608225  0.33116927  0.57841045     0.40500
H1032       H  0.42045392  0.37557323  0.57764721     0.35300
C1033       C  0.64003973  0.35935263  0.97169925    -0.26400
C1034       C  0.60905186  0.36144315  0.99576377    -0.14500
C1035       C  0.59728860  0.32880988  0.01567204     0.36200
C1036       C  0.61815377  0.29564652  0.01250800    -0.25800
C1037       C  0.64931934  0.29362042  0.98862792    -0.15100
C1038       C  0.65960590  0.32560583  0.96690817     0.37300
N1039       N  0.68984109  0.32489591  0.94002981    -0.89300
H1040       H  0.64775402  0.38357505  0.95476068     0.18400
H1041       H  0.61030352  0.27137381  0.02927898     0.18400
N1042       N  0.56408551  0.32796942  0.03876063    -0.88400
H1043       H  0.67846755  0.33174704  0.91383820     0.35700
H1044       H  0.70084643  0.29788570  0.93704529     0.40800
H1045       H  0.55042475  0.35386081  0.03911036     0.40500
H1046       H  0.57257493  0.32253417  0.06632850     0.35300
C1047       C  0.47422565  0.37285997  0.84805108    -0.26400
C1048       C  0.50807060  0.37815135  0.86741046    -0.14500
C1049       C  0.54214312  0.36586786  0.85119037     0.36200
C1050       C  0.54177484  0.34988486  0.81518835    -0.25800
C1051       C  0.50780843  0.34362033  0.79615347    -0.15100
C1052       C  0.47364994  0.35500746  0.81284064     0.37300
N1053       N  0.43856384  0.34837457  0.79391047    -0.89300
H1054       H  0.44836933  0.38335704  0.86007204     0.18400
H1055       H  0.56777619  0.33987017  0.80290478     0.18400
N1056       N  0.57670839  0.36806218  0.87213590    -0.88400
H1057       H  0.41616755  0.35908775  0.80959508     0.35700
H1058       H  0.43448126  0.31927167  0.79251893     0.40800
H1059       H  0.58338705  0.39633259  0.87629403     0.40500
H1060       H  0.59893225  0.35654373  0.85678785     0.35300
C1061       C  0.54079760  0.50259926  0.10596264    -0.26400
C1062       C  0.54150282  0.46582191  0.09133348    -0.14500
C1063       C  0.55993028  0.43726387  0.11186415     0.36200
C1064       C  0.58058799  0.44691057  0.14409762    -0.25800
C1065       C  0.58326025  0.48438248  0.15596552    -0.15100
C1066       C  0.56219077  0.51234172  0.13763279     0.37300
N1067       N  0.56461977  0.55082491  0.14973364    -0.89300
H1068       H  0.52657553  0.52460755  0.09041018     0.18400
H1069       H  0.59677574  0.42557832  0.15862021     0.18400
N1070       N  0.56065253  0.39936555  0.09807336    -0.88400
H1071       H  0.54738448  0.56794911  0.13320590     0.35700
H1072       H  0.59222670  0.55999734  0.14518213     0.40800
H1073       H  0.53321141  0.38884108  0.09976174     0.40500
H1074       H  0.57718366  0.38227436  0.11533944     0.35300
C1075       C  0.38959469  0.44422007  0.00416608    -0.26400
C1076       C  0.40361373  0.44764655  0.96725822    -0.14500
C1077       C  0.38109822  0.43425758  0.93748874     0.36200
C1078       C  0.34776276  0.41402708  0.94541580    -0.25800
C1079       C  0.33675351  0.40658664  0.98262955    -0.15100
C1080       C  0.35701032  0.42330785  0.01206091     0.37300
N1081       N  0.34588023  0.41711382  0.05022411    -0.89300
H1082       H  0.40585196  0.45494894  0.02755720     0.18400
H1083       H  0.33192625  0.40173381  0.92252556     0.18400
N1084       N  0.39306447  0.43880914  0.89940549    -0.88400
H1085       H  0.34129312  0.44333920  0.06260679     0.35700
H1086       H  0.36820692  0.40420148  0.06429869     0.40800
H1087       H  0.37210730  0.45360376  0.88508735     0.40500
H1088       H  0.39494333  0.41210238  0.88738018     0.35300
C1089       C  0.84554423  0.91697566  0.45354034    -0.26400
C1090       C  0.83798705  0.90660532  0.49080578    -0.14500
C1091       C  0.86043736  0.92099402  0.51985243     0.36200
C1092       C  0.89267560  0.94196131  0.51074741    -0.25800
C1093       C  0.90343285  0.94801019  0.47309209    -0.15100
C1094       C  0.87806059  0.93777887  0.44424734     0.37300
N1095       N  0.88600912  0.94673524  0.40568692    -0.89300
H1096       H  0.82728136  0.90670971  0.43146123     0.18400
H1097       H  0.91122510  0.95082316  0.53319668     0.18400
N1098       N  0.85193175  0.91178601  0.55823880    -0.88400
H1099       H  0.86352342  0.93873447  0.38853349     0.35700
H1100       H  0.90890094  0.93053098  0.39721068     0.40800
H1101       H  0.82604531  0.92404815  0.56474520     0.40500
H1102       H  0.87178229  0.92380046  0.57627077     0.35300
C1103       C  0.63122836  0.91455407  0.56718147    -0.26400
C1104       C  0.64351437  0.90557316  0.53075361    -0.14500
C1105       C  0.62288273  0.91929935  0.49967353     0.36200
C1106       C  0.58952030  0.93919634  0.50586214    -0.25800
C1107       C  0.57466230  0.94440582  0.54214947    -0.15100
C1108       C  0.59691674  0.93327495  0.57324725     0.37300
N1109       N  0.58449453  0.93823273  0.61113062    -0.89300
H1110       H  0.64695171  0.90429055  0.59114325     0.18400
H1111       H  0.57347352  0.94807054  0.48155154     0.18400
N1112       N  0.63366053  0.91207575  0.46142590    -0.88400
H1113       H  0.55938723  0.92335264  0.61496926     0.35700
H1114       H  0.57955810  0.96686180  0.61552152     0.40800
H1115       H  0.65876012  0.89711431  0.45957908     0.40500
H1116       H  0.61285311  0.89507611  0.44945252     0.35300
C1117       C  0.66373755  0.67757463  0.52869546    -0.26400
C1118       C  0.64898072  0.70909599  0.50988075    -0.14500
C1119       C  0.61482986  0.70567563  0.49044579     0.36200
C1120       C  0.59529779  0.67137415  0.49140235    -0.25800
C1121       C  0.61046390  0.63966282  0.50955606    -0.15100
C1122       C  0.64584451  0.64253638  0.52729151     0.37300
N1123       N  0.66423578  0.61094291  0.54443862    -0.89300
H1124       H  0.69068000  0.67977914  0.54280092     0.18400
H1125       H  0.56796760  0.66950002  0.47803482     0.18400
N1126       N  0.60038284  0.73664066  0.46915572    -0.88400
H1127       H  0.69045224  0.60791681  0.53148158     0.35700
H1128       H  0.64982048  0.58604117  0.53880305     0.40800
H1129       H  0.59762036  0.72799762  0.44126856     0.40500
H1130       H  0.57355940  0.74296266  0.47935766     0.35300
C1131       C  0.84366453  0.69320893  0.45524766    -0.26400
C1132       C  0.83307886  0.70840607  0.48989093    -0.14500
C1133       C  0.83927182  0.68711319  0.52292984     0.36200
C1134       C  0.85737139  0.65210475  0.52087222    -0.25800
C1135       C  0.86761532  0.63684118  0.48610990    -0.15100
C1136       C  0.85884696  0.65695826  0.45279370     0.37300
N1137       N  0.86383076  0.64097079  0.41605116    -0.89300
H1138       H  0.83713012  0.70838923  0.42965058     0.18400
H1139       H  0.86404612  0.63710549  0.54652935     0.18400
N1140       N  0.82693630  0.70027927  0.55881879    -0.88400
H1141       H  0.83744294  0.64022809  0.40309995     0.35700
H1142       H  0.87252557  0.61298450  0.41757049     0.40800
H1143       H  0.79777640  0.70393737  0.55785646     0.40500
H1144       H  0.83944618  0.72644910  0.56376318     0.35300
C1145       C  0.49142857  0.89877856  0.94829677    -0.26400
C1146       C  0.45463156  0.91344295  0.94770511    -0.14500
C1147       C  0.42564641  0.89178387  0.93120738     0.36200
C1148       C  0.43505366  0.85905922  0.91102246    -0.25800
C1149       C  0.47255051  0.84716777  0.90806743    -0.15100
C1150       C  0.50051697  0.86586877  0.92866208     0.37300
N1151       N  0.53858378  0.85283280  0.92765968    -0.89300
H1152       H  0.51390510  0.91457750  0.96152280     0.18400
H1153       H  0.41344366  0.84395477  0.89574906     0.18400
N1154       N  0.38736458  0.90454157  0.93239351    -0.88400
H1155       H  0.55547210  0.87447029  0.91695470     0.35700
H1156       H  0.54706863  0.84749230  0.95524830     0.40800
H1157       H  0.37871668  0.90366659  0.96043020     0.40500
H1158       H  0.36978557  0.88601788  0.91782258     0.35300
C1159       C  0.55439314  0.64427211  0.92042470    -0.26400
C1160       C  0.51839455  0.65459960  0.90801640    -0.14500
C1161       C  0.48696847  0.63320450  0.91908076     0.36200
C1162       C  0.49236445  0.60050588  0.94037987    -0.25800
C1163       C  0.52870374  0.58724746  0.94893704    -0.15100
C1164       C  0.56006091  0.61039856  0.94034359     0.37300
N1165       N  0.59759056  0.59837765  0.94915973    -0.89300
H1166       H  0.57838677  0.66108808  0.91184641     0.18400
H1167       H  0.46800460  0.58350518  0.94743427     0.18400
N1168       N  0.45000364  0.64307681  0.90598201    -0.88400
H1169       H  0.61697010  0.61971593  0.94304467     0.35700
H1170       H  0.60402988  0.57618976  0.93110748     0.40800
H1171       H  0.44247275  0.66846349  0.91857008     0.40500
H1172       H  0.43014172  0.62318631  0.91481132     0.35300
C1173       C  0.45191784  0.86803429  0.70726848    -0.26400
C1174       C  0.48320995  0.84475012  0.71123041    -0.14500
C1175       C  0.50921360  0.84175616  0.68105358     0.36200
C1176       C  0.50248713  0.86129108  0.64741607    -0.25800
C1177       C  0.47087197  0.88441461  0.64334615    -0.15100
C1178       C  0.44560244  0.88793445  0.67396602     0.37300
N1179       N  0.41284541  0.91114249  0.67126257    -0.89300
H1180       H  0.43141905  0.86972749  0.72973743     0.18400
H1181       H  0.52270348  0.85917348  0.62474771     0.18400
N1182       N  0.54279597  0.81943698  0.68365917    -0.88400
H1183       H  0.41433751  0.93154886  0.69229573     0.35700
H1184       H  0.38926828  0.89430272  0.67662542     0.40800
H1185       H  0.54666264  0.80853684  0.71059886     0.40500
H1186       H  0.53977611  0.79665722  0.66539381     0.35300
C1187       C  0.48003821  0.62989787  0.70641474    -0.26400
C1188       C  0.50634899  0.65884047  0.71122045    -0.14500
C1189       C  0.53149886  0.66787686  0.68173050     0.36200
C1190       C  0.52882025  0.64855900  0.64750260    -0.25800
C1191       C  0.50192683  0.62024504  0.64241137    -0.15100
C1192       C  0.47810074  0.60990461  0.67251705     0.37300
N1193       N  0.45184637  0.57934631  0.66844088    -0.89300
H1194       H  0.46050541  0.62348969  0.72891514     0.18400
H1195       H  0.54846820  0.65483207  0.62504709     0.18400
N1196       N  0.55992886  0.69629375  0.68687440    -0.88400
H1197       H  0.43559532  0.57622835  0.69272275     0.35700
H1198       H  0.46724773  0.55450866  0.66565997     0.40800
H1199       H  0.54659845  0.72235651  0.68886656     0.40500
H1200       H  0.57735229  0.69795045  0.66327266     0.35300
C1201       C  0.91170623  0.49992359  0.86115091    -0.26400
C1202       C  0.89774723  0.46722153  0.84427295    -0.14500
C1203       C  0.90896503  0.43177565  0.85828803     0.36200
C1204       C  0.92997616  0.42990204  0.89186178    -0.25800
C1205       C  0.94019812  0.46284245  0.91117896    -0.15100
C1206       C  0.93359370  0.49811966  0.89386239     0.37300
N1207       N  0.94727502  0.53217475  0.91083908    -0.89300
H1208       H  0.90397310  0.52708637  0.84966663     0.18400
H1209       H  0.93556018  0.40272436  0.90447731     0.18400
N1210       N  0.89795738  0.39794646  0.83913264    -0.88400
H1211       H  0.93961132  0.55565775  0.89487708     0.35700
H1212       H  0.97666261  0.53107809  0.91049427     0.40800
H1213       H  0.86872215  0.39543273  0.84081318     0.40500
H1214       H  0.90907212  0.37435276  0.85270487     0.35300
C1215       C  0.91995827  0.49359783  0.63917395    -0.26400
C1216       C  0.89364797  0.51955355  0.65280825    -0.14500
C1217       C  0.89211338  0.55588513  0.63631296     0.36200
C1218       C  0.91377489  0.56374249  0.60426022    -0.25800
C1219       C  0.93705273  0.53631834  0.58819512    -0.15100
C1220       C  0.94212644  0.50173762  0.60749664     0.37300
N1221       N  0.96820947  0.47367190  0.59470221    -0.89300
H1222       H  0.92211413  0.46612762  0.65225553     0.18400
H1223       H  0.90976773  0.59040350  0.58998576     0.18400
N1224       N  0.86796682  0.58499256  0.65043048    -0.88400
H1225       H  0.98705340  0.46849934  0.61662929     0.35700
H1226       H  0.98467087  0.48395973  0.57264825     0.40800
H1227       H  0.85480276  0.57706961  0.67542023     0.40500
H1228       H  0.84684696  0.58958151  0.63053714     0.35300
C1229       C  0.69858814  0.50438046  0.87703304    -0.26400
C1230       C  0.70023120  0.48146647  0.84514329    -0.14500
C1231       C  0.66783547  0.46044055  0.83465922     0.36200
C1232       C  0.63436003  0.46452661  0.85498809    -0.25800
C1233       C  0.63274244  0.48735670  0.88682928    -0.15100
C1234       C  0.66549761  0.50671614  0.89861638     0.37300
N1235       N  0.66482296  0.52928519  0.93204180    -0.89300
H1236       H  0.72301302  0.52097536  0.88468615     0.18400
H1237       H  0.60980265  0.44854041  0.84662867     0.18400
N1238       N  0.66796891  0.43451185  0.80373522    -0.88400
H1239       H  0.69059230  0.54303663  0.93574519     0.35700
H1240       H  0.66175014  0.51119427  0.95500300     0.40800
H1241       H  0.69481352  0.43124452  0.79235114     0.40500
H1242       H  0.65067073  0.44554571  0.78271605     0.35300
C1243       C  0.66711901  0.48021891  0.66557719    -0.26400
C1244       C  0.69604996  0.50699836  0.66041949    -0.14500
C1245       C  0.68972982  0.53800225  0.63684672     0.36200
C1246       C  0.65553284  0.54059138  0.61752240    -0.25800
C1247       C  0.62698646  0.51317310  0.62119596    -0.15100
C1248       C  0.63244445  0.48315966  0.64651972     0.37300
N1249       N  0.60292054  0.45632706  0.65341776    -0.89300
H1250       H  0.67142971  0.45738416  0.68531075     0.18400
H1251       H  0.65081787  0.56478812  0.59987033     0.18400
N1252       N  0.71761911  0.56720534  0.63337400    -0.88400
H1253       H  0.61121554  0.43683206  0.67379697     0.35700
H1254       H  0.59862726  0.44110288  0.62881920     0.40800
H1255       H  0.72017283  0.58024349  0.65951993     0.40500
H1256       H  0.70874130  0.58793661  0.61451355     0.35300
loop_ 
_geom_bond_atom_site_label_1 
_geom_bond_atom_site_label_2 
_geom_bond_distance 
_geom_bond_site_symmetry_2 
_ccdc_geom_bond_type 
N1            C6   1.348       .  A
N1            C5   1.347       .  A
N1           H33   1.042       .  S
N2            C9   1.354       .  A
N2           C10   1.349       .  A
N3            C8   1.357       .  A
N3            C7   1.359       .  A
N3           H34   1.038       .  S
N4           C11   1.356       .  A
N4           C12   1.351       .  A
C5           C13   1.385       .  A
C5           C21   1.401       .  A
C6           C22   1.405       .  A
C6           C14   1.388       .  A
C7           C15   1.386       .  A
C7           C24   1.423       .  A
C8           C23   1.424       .  A
C8           C16   1.388       .  A
C9           C21   1.415       .  A
C9           C17   1.384       .  A
C10          C24   1.419       .  A
C10          C18   1.389       .  A
C11          C19   1.382       .  A
C11          C22   1.415       .  A
C12          C20   1.391       .  A
C12          C23   1.423       .  A
C13          C14   1.369       .  A
C13          H25   1.083       .  S
C14          H26   1.083       .  S
C15          C16   1.377       .  A
C15          H27   1.082       .  S
C16          H28   1.082       .  S
C17          C18   1.379       .  A
C17          H29   1.082       .  S
C18          H30   1.082       .  S
C19          C20   1.378       .  A
C19          H31   1.082       .  S
C20          H32   1.082       .  S
C21        C1244   1.489       .  S
C22        C1230   1.492       .  S
C23        C1202   1.494       .  S
C24        C1216   1.498       .  S
N35          C40   1.347       .  A
N35          C39   1.347       .  A
N35          H67   1.041       .  S
N36          C43   1.354       .  A
N36          C44   1.350       .  A
N37          C42   1.356       .  A
N37          C41   1.354       .  A
N37          H68   1.037       .  S
N38          C45   1.353       .  A
N38          C46   1.349       .  A
C39          C47   1.388       .  A
C39          C55   1.404       .  A
C40          C56   1.401       .  A
C40          C48   1.385       .  A
C41          C49   1.388       .  A
C41          C58   1.420       .  A
C42          C57   1.419       .  A
C42          C50   1.386       .  A
C43          C55   1.412       .  A
C43          C51   1.383       .  A
C44          C58   1.420       .  A
C44          C52   1.390       .  A
C45          C53   1.383       .  A
C45          C56   1.412       .  A
C46          C54   1.389       .  A
C46          C57   1.417       .  A
C47          C48   1.369       .  A
C47          H59   1.082       .  S
C48          H60   1.082       .  S
C49          C50   1.377       .  A
C49          H61   1.082       .  S
C50          H62   1.082       .  S
C51          C52   1.378       .  A
C51          H63   1.082       .  S
C52          H64   1.082       .  S
C53          C54   1.378       .  A
C53          H65   1.082       .  S
C54          H66   1.082       .  S
C55        C1188   1.484       .  S
C56        C1174   1.487       .  S
C57        C1149   1.489       .  S
C58        C1160   1.487       .  S
N69          C74   1.346       .  A
N69          C73   1.349       .  A
N69         H101   1.041       .  S
N70          C77   1.355       .  A
N70          C78   1.348       .  A
N71          C76   1.357       .  A
N71          C75   1.355       .  A
N71         H102   1.038       .  S
N72          C79   1.353       .  A
N72          C80   1.350       .  A
C73          C81   1.387       .  A
C73          C89   1.403       .  A
C74          C90   1.404       .  A
C74          C82   1.387       .  A
C75          C83   1.388       .  A
C75          C92   1.420       .  A
C76          C91   1.422       .  A
C76          C84   1.386       .  A
C77          C89   1.414       .  A
C77          C85   1.382       .  A
C78          C92   1.420       .  A
C78          C86   1.391       .  A
C79          C87   1.383       .  A
C79          C90   1.412       .  A
C80          C88   1.389       .  A
C80          C91   1.418       .  A
C81          C82   1.367       .  A
C81          H93   1.080       .  S
C82          H94   1.083       .  S
C83          C84   1.379       .  A
C83          H95   1.082       .  S
C84          H96   1.082       .  S
C85          C86   1.381       .  A
C85          H97   1.082       .  S
C86          H98   1.082       .  S
C87          C88   1.377       .  A
C87          H99   1.082       .  S
C88         H100   1.082       .  S
C89        C1132   1.490       .  S
C90        C1118   1.486       .  S
C91        C1104   1.496       .  S
C92        C1090   1.486       .  S
O103       Cr121   2.046       .  S
O103        C111   1.273       .  A
O104       Cr121   1.952   1_554  S
O104        C105   1.252       .  A
C105       C1062   1.483       .  S
C105        O106   1.273       .  A
O106       Cr122   2.046   1_554  S
O107       Cr122   1.948       .  S
O107        C108   1.252       .  A
C108       C1076   1.495       .  S
C108        O109   1.277       .  A
O109       Cr123   2.066       .  S
O110       Cr123   1.950       .  S
O110        C111   1.254       .  A
C111       C1163   1.490       .  S
O112       Cr121   1.938       .  S
O112        C120   1.251       .  A
O113       Cr121   2.049   1_554  S
O113        C114   1.277   1_554  A
C114       C1034   1.464       .  S
C114        O115   1.250       .  A
O115       Cr122   1.929       .  S
O116       Cr122   2.053       .  S
O116        C117   1.276       .  A
C117       C1048   1.469       .  S
C117        O118   1.250       .  A
O118       Cr123   1.932       .  S
O119       Cr123   2.057       .  S
O119        C120   1.279       .  A
C120       C1233   1.474       .  S
Cr121       O124   1.755       .  S
Cr122       O124   1.754       .  S
Cr123       O124   1.751       .  S
O125       Cr143   2.057       .  S
O125        C133   1.275       .  A
O126       Cr143   1.954       .  S
O126        C127   1.253       .  A
C127       C1023   1.491       .  S
C127        O128   1.271       .  A
O128       Cr144   2.042       .  S
O129       Cr144   1.952       .  S
O129        C130   1.255       .  A
C130       C1009   1.491       .  S
C130        O131   1.274       .  A
O131       Cr145   2.049       .  S
O132       Cr145   1.942       .  S
O132        C133   1.252       .  A
C133        C995   1.487       .  S
O134       Cr143   1.932       .  S
O134        C142   1.249       .  A
O135       Cr143   2.062       .  S
O135        C136   1.280       .  A
C136       C1247   1.489       .  S
C136        O137   1.254       .  A
O137       Cr144   1.934       .  S
O138       Cr144   2.047       .  S
O138        C139   1.275       .  A
C139       C1121   1.468       .  S
C139        O140   1.252       .  A
O140       Cr145   1.940       .  S
O141       Cr145   2.049       .  S
O141        C142   1.276       .  A
C142       C1191   1.466       .  S
Cr143       O146   1.757       .  S
Cr144       O146   1.753       .  S
Cr145       O146   1.753       .  S
O147       Cr165   2.051       .  S
O147        C155   1.275       .  A
O148       Cr165   1.950       .  S
O148        C149   1.255       .  A
C149       C1107   1.496       .  S
C149        O150   1.275       .  A
O150       Cr166   2.057       .  S
O151       Cr166   1.957   1_545  S
O151        C152   1.254       .  A
C152        C978   1.492       .  S
C152        O153   1.271       .  A
O153       Cr167   2.043   1_545  S
O154       Cr167   1.953       .  S
O154        C155   1.256       .  A
C155        C939   1.489       .  S
O156       Cr165   1.950       .  S
O156        C164   1.255       .  A
O157       Cr165   2.056       .  S
O157        C158   1.277       .  A
C158       C1177   1.485       .  S
C158        O159   1.250       .  A
O159       Cr166   1.936       .  S
O160       Cr166   2.052   1_545  S
O160        C161   1.278   1_545  A
C161        C964   1.475       .  S
C161        O162   1.253       .  A
O162       Cr167   1.936       .  S
O163       Cr167   2.050       .  S
O163        C164   1.275       .  A
C164        C950   1.476       .  S
Cr165       O168   1.754       .  S
Cr166       O168   1.754       .  S
Cr167       O168   1.758       .  S
N169        C174   1.349       .  A
N169        C173   1.350       .  A
N169        H201   1.040       .  S
N170        C177   1.355       .  A
N170        C178   1.351       .  A
N171        C176   1.356       .  A
N171        C175   1.355       .  A
N171        H202   1.036       .  S
N172        C179   1.352       .  A
N172        C180   1.349       .  A
C173        C181   1.389       .  A
C173        C189   1.407       .  A
C174        C190   1.405       .  A
C174        C182   1.386       .  A
C175        C183   1.387       .  A
C175        C192   1.420       .  A
C176        C191   1.421       .  A
C176        C184   1.387       .  A
C177        C189   1.415       .  A
C177        C185   1.383       .  A
C178        C192   1.422       .  A
C178        C186   1.390       .  A
C179        C187   1.383       .  A
C179        C190   1.411       .  A
C180        C188   1.390       .  A
C180        C191   1.418       .  A
C181        C182   1.364       .  A
C181        H193   1.079       .  S
C182        H194   1.083       .  S
C183        C184   1.377       .  A
C183        H195   1.082       .  S
C184        H196   1.082       .  S
C185        C186   1.380       .  A
C185        H197   1.082       .  S
C186        H198   1.082       .  S
C187        C188   1.378       .  A
C187        H199   1.082       .  S
C188        H200   1.082       .  S
C189       C1051   1.489       .  S
C190        C922   1.483       .  S
C191        C981   1.490       .  S
C192       C1020   1.489       .  S
O203       Cr221   2.048   1_554  S
O203        C211   1.275       .  A
O204       Cr221   1.953       .  S
O204        C205   1.253       .  A
C205        C908   1.490       .  S
C205        O206   1.272       .  A
O206       Cr222   2.049       .  S
O207       Cr222   1.955   1_565  S
O207        C208   1.255       .  A
C208       C1146   1.488       .  S
C208        O209   1.275       .  A
O209       Cr223   2.052   1_565  S
O210       Cr223   1.954   1_554  S
O210        C211   1.254       .  A
C211        C866   1.484       .  S
O212       Cr221   1.936       .  S
O212        C220   1.250       .  A
O213       Cr221   2.051       .  S
O213        C214   1.278       .  A
C214        C925   1.466       .  S
C214        O215   1.251       .  A
O215       Cr222   1.933       .  S
O216       Cr222   2.049       .  S
O216        C217   1.275       .  A
C217        C883   1.468       .  S
C217        O218   1.251       .  A
O218       Cr223   1.944       .  S
O219       Cr223   2.048   1_554  S
O219        C220   1.275   1_554  A
C220        C894   1.468       .  S
Cr221       O224   1.755       .  S
Cr222       O224   1.759       .  S
Cr223       O224   1.755       .  S
N225        C230   1.346   1_556  A
N225        C229   1.345   1_556  A
N225        H257   1.041       .  S
N226        C233   1.352       .  A
N226        C234   1.348       .  A
N227        C232   1.356       .  A
N227        C231   1.357   1_556  A
N227        H258   1.038       .  S
N228        C235   1.354       .  A
N228        C236   1.350       .  A
C229        C237   1.385       .  A
C229        C245   1.399       .  A
C230        C246   1.404   1_554  A
C230        C238   1.389       .  A
C231        C239   1.386       .  A
C231        C248   1.420       .  A
C232        C247   1.423       .  A
C232        C240   1.388   1_556  A
C233        C245   1.410       .  A
C233        C241   1.384       .  A
C234        C248   1.416       .  A
C234        C242   1.389       .  A
C235        C243   1.382       .  A
C235        C246   1.413       .  A
C236        C244   1.391       .  A
C236        C247   1.422       .  A
C237        C238   1.368       .  A
C237        H249   1.083       .  S
C238        H250   1.083       .  S
C239        C240   1.377       .  A
C239        H251   1.082       .  S
C240        H252   1.082       .  S
C241        C242   1.379       .  A
C241        H253   1.082   1_554  S
C242        H254   1.082       .  S
C243        C244   1.376       .  A
C243        H255   1.082       .  S
C244        H256   1.082       .  S
C245        C852   1.481       .  S
C246       C1037   1.485       .  S
C247        C911   1.493       .  S
C248        C841   1.491       .  S
N259        C264   1.349   1_545  A
N259        C263   1.350   1_545  A
N259        H291   1.038       .  S
N260        C267   1.356       .  A
N260        C268   1.352       .  A
N261        C266   1.357       .  A
N261        C265   1.354       .  A
N261        H292   1.035   1_565  S
N262        C269   1.353       .  A
N262        C270   1.350       .  A
C263        C271   1.389       .  A
C263        C279   1.409   1_565  A
C264        C280   1.406       .  A
C264        C272   1.386       .  A
C265        C273   1.388       .  A
C265        C282   1.423   1_565  A
C266        C281   1.422       .  A
C266        C274   1.386       .  A
C267        C279   1.415       .  A
C267        C275   1.383       .  A
C268        C282   1.426       .  A
C268        C276   1.391       .  A
C269        C277   1.383       .  A
C269        C280   1.412       .  A
C270        C278   1.389       .  A
C270        C281   1.419       .  A
C271        C272   1.365       .  A
C271        H283   1.082       .  S
C272        H284   1.082       .  S
C273        C274   1.380       .  A
C273        H285   1.082       .  S
C274        H286   1.082       .  S
C275        C276   1.376       .  A
C275        H287   1.082       .  S
C276        H288   1.082       .  S
C277        C278   1.375       .  A
C277        H289   1.082   1_565  S
C278        H290   1.082       .  S
C279        C880   1.488       .  S
C280        C967   1.484       .  S
C281        C827   1.494       .  S
C282        C810   1.493       .  S
N293        C298   1.347   1_655  A
N293        C297   1.346   1_655  A
N293        H325   1.041       .  S
N294        C301   1.353       .  A
N294        C302   1.349       .  A
N295        C300   1.356       .  A
N295        C299   1.359       .  A
N295        H326   1.038       .  S
N296        C303   1.355       .  A
N296        C304   1.350       .  A
C297        C305   1.385       .  A
C297        C313   1.399       .  A
C298        C314   1.406   1_455  A
C298        C306   1.389       .  A
C299        C307   1.386   1_655  A
C299        C316   1.424   1_655  A
C300        C315   1.425       .  A
C300        C308   1.388       .  A
C301        C313   1.413       .  A
C301        C309   1.384   1_455  A
C302        C316   1.417       .  A
C302        C310   1.388   1_455  A
C303        C311   1.383       .  A
C303        C314   1.415       .  A
C304        C312   1.391       .  A
C304        C315   1.422       .  A
C305        C306   1.370       .  A
C305        H317   1.083       .  S
C306        H318   1.083       .  S
C307        C308   1.378   1_455  A
C307        H319   1.082       .  S
C308        H320   1.082       .  S
C309        C310   1.379       .  A
C309        H321   1.082       .  S
C310        H322   1.082       .  S
C311        C312   1.378       .  A
C311        H323   1.082       .  S
C312        H324   1.082       .  S
C313        C796   1.485       .  S
C314        C782   1.491       .  S
C315        C768   1.493       .  S
C316        C754   1.499       .  S
N327        C332   1.344       .  A
N327        C331   1.346       .  A
N327        H359   1.041       .  S
N328        C335   1.356       .  A
N328        C336   1.350       .  A
N329        C334   1.358       .  A
N329        C333   1.354       .  A
N329        H360   1.037       .  S
N330        C337   1.353       .  A
N330        C338   1.348       .  A
C331        C339   1.389       .  A
C331        C347   1.404       .  A
C332        C348   1.397       .  A
C332        C340   1.384       .  A
C333        C341   1.388       .  A
C333        C350   1.422       .  A
C334        C349   1.421       .  A
C334        C342   1.386       .  A
C335        C347   1.418       .  A
C335        C343   1.383       .  A
C336        C350   1.421       .  A
C336        C344   1.390       .  A
C337        C345   1.383       .  A
C337        C348   1.411       .  A
C338        C346   1.389       .  A
C338        C349   1.417       .  A
C339        C340   1.373       .  A
C339        H351   1.083       .  S
C340        H352   1.082       .  S
C341        C342   1.379       .  A
C341        H353   1.082       .  S
C342        H354   1.082       .  S
C343        C344   1.379       .  A
C343        H355   1.082       .  S
C344        H356   1.081       .  S
C345        C346   1.380       .  A
C345        H357   1.082       .  S
C346        H358   1.082       .  S
C347        C953   1.496       .  S
C348        C740   1.482       .  S
C349        C729   1.493       .  S
C350        C992   1.491       .  S
N361        C366   1.348       .  A
N361        C365   1.348       .  A
N361        H393   1.040       .  S
N362        C369   1.353       .  A
N362        C370   1.347       .  A
N363        C368   1.355       .  A
N363        C367   1.355       .  A
N363        H394   1.037       .  S
N364        C371   1.353       .  A
N364        C372   1.351       .  A
C365        C373   1.385       .  A
C365        C381   1.403       .  A
C366        C382   1.406       .  A
C366        C374   1.388       .  A
C367        C375   1.386       .  A
C367        C384   1.418       .  A
C368        C383   1.420       .  A
C368        C376   1.388       .  A
C369        C381   1.411       .  A
C369        C377   1.384       .  A
C370        C384   1.415       .  A
C370        C378   1.389       .  A
C371        C379   1.383       .  A
C371        C382   1.412       .  A
C372        C380   1.390       .  A
C372        C383   1.420       .  A
C373        C374   1.369       .  A
C373        H385   1.083       .  S
C374        H386   1.082       .  S
C375        C376   1.377       .  A
C375        H387   1.082       .  S
C376        H388   1.082       .  S
C377        C378   1.377       .  A
C377        H389   1.082       .  S
C378        H390   1.082       .  S
C379        C380   1.377       .  A
C379        H391   1.082       .  S
C380        H392   1.082       .  S
C381        C712   1.486       .  S
C382        C698   1.483       .  S
C383       C1006   1.490       .  S
C384       C1065   1.485       .  S
O395       Cr413   2.046   1_455  S
O395        C403   1.275       .  A
O396       Cr413   1.957       .  S
O396        C397   1.254       .  A
C397        C684   1.491       .  S
C397        O398   1.274       .  A
O398       Cr414   2.052       .  S
O399       Cr414   1.956       .  S
O399        C400   1.254       .  A
C400       C1219   1.483       .  S
C400        O401   1.275       .  A
O401       Cr415   2.050       .  S
O402       Cr415   1.960   1_455  S
O402        C403   1.255       .  A
C403        C726   1.488       .  S
O404       Cr413   1.941       .  S
O404        C412   1.251       .  A
O405       Cr413   2.049       .  S
O405        C406   1.276       .  A
C406        C701   1.466       .  S
C406        O407   1.250       .  A
O407       Cr414   1.935       .  S
O408       Cr414   2.055       .  S
O408        C409   1.276       .  A
C409       C1135   1.477       .  S
C409        O410   1.252       .  A
O410       Cr415   1.942       .  S
O411       Cr415   2.048       .  S
O411        C412   1.275       .  A
C412        C785   1.471       .  S
Cr413       O416   1.756       .  S
Cr414       O416   1.760       .  S
Cr415       O416   1.757       .  S
O417       Cr435   2.046       .  S
O417        C425   1.274       .  A
O418       Cr435   1.950   1_655  S
O418        C419   1.253       .  A
C419       C1093   1.489       .  S
C419        O420   1.273       .  A
O420       Cr436   2.045   1_655  S
O421       Cr436   1.949   1_545  S
O421        C422   1.254       .  A
C422        C656   1.491       .  S
C422        O423   1.276       .  A
O423       Cr437   2.056   1_545  S
O424       Cr437   1.959       .  S
O424        C425   1.255       .  A
C425        C824   1.486       .  S
O426       Cr435   1.925       .  S
O426        C434   1.249       .  A
O427       Cr435   2.050   1_655  S
O427        C428   1.276   1_655  A
C428        C799   1.483       .  S
C428        O429   1.254       .  A
O429       Cr436   1.936       .  S
O430       Cr436   2.054   1_545  S
O430        C431   1.276   1_545  A
C431        C673   1.472   1_565  S
C431        O432   1.251       .  A
O432       Cr437   1.938       .  S
O433       Cr437   2.057       .  S
O433        C434   1.278       .  A
C434        C743   1.481       .  S
Cr435       O438   1.755       .  S
Cr436       O438   1.756       .  S
Cr437       O438   1.756       .  S
O439       Cr457   2.054       .  S
O439        C447   1.275       .  A
O440       Cr457   1.952   1_556  S
O440        C441   1.254       .  A
C441       C1205   1.489       .  S
C441        O442   1.273       .  A
O442       Cr458   2.048   1_556  S
O443       Cr458   1.953   1_455  S
O443        C444   1.253       .  A
C444        C631   1.490       .  S
C444        O445   1.273       .  A
O445       Cr459   2.051   1_455  S
O446       Cr459   1.948       .  S
O446        C447   1.256       .  A
C447        C771   1.491       .  S
O448       Cr457   1.941       .  S
O448        C456   1.254       .  A
O449       Cr457   2.056       .  S
O449        C450   1.278       .  A
C450        C855   1.479       .  S
C450        O451   1.248       .  A
O451       Cr458   1.917       .  S
O452       Cr458   2.056       .  S
O452        C453   1.278       .  A
C453        C642   1.490       .  S
C453        O454   1.252       .  A
O454       Cr459   1.928       .  S
O455       Cr459   2.047       .  S
O455        C456   1.274       .  A
C456        C715   1.495       .  S
Cr457       O460   1.755       .  S
Cr458       O460   1.755       .  S
Cr459       O460   1.751       .  S
N461        C466   1.345       .  A
N461        C465   1.346       .  A
N461        H493   1.042   1_545  S
N462        C469   1.355       .  A
N462        C470   1.350       .  A
N463        C468   1.358   1_565  A
N463        C467   1.354       .  A
N463        H494   1.037       .  S
N464        C471   1.352       .  A
N464        C472   1.346       .  A
C465        C473   1.388       .  A
C465        C481   1.403       .  A
C466        C482   1.398       .  A
C466        C474   1.385       .  A
C467        C475   1.388   1_565  A
C467        C484   1.422       .  A
C468        C483   1.421       .  A
C468        C476   1.386       .  A
C469        C481   1.417   1_565  A
C469        C477   1.384       .  A
C470        C484   1.422       .  A
C470        C478   1.390       .  A
C471        C479   1.383   1_545  A
C471        C482   1.410       .  A
C472        C480   1.389       .  A
C472        C483   1.416       .  A
C473        C474   1.370       .  A
C473        H485   1.083       .  S
C474        H486   1.082       .  S
C475        C476   1.378       .  A
C475        H487   1.082       .  S
C476        H488   1.082       .  S
C477        C478   1.381       .  A
C477        H489   1.082       .  S
C478        H490   1.082       .  S
C479        C480   1.380   1_565  A
C479        H491   1.082       .  S
C480        H492   1.082   1_545  S
C481        C670   1.494       .  S
C482        C617   1.483       .  S
C483        C869   1.491       .  S
C484        C936   1.490       .  S
O495       Cr513   2.052   1_556  S
O495        C503   1.275       .  A
O496       Cr513   1.956   1_655  S
O496        C497   1.254       .  A
C497        C838   1.488       .  S
C497        O498   1.275       .  A
O498       Cr514   2.054   1_655  S
O499       Cr514   1.957   1_565  S
O499        C500   1.254       .  A
C500        C757   1.482       .  S
C500        O501   1.273       .  A
O501       Cr515   2.048   1_565  S
O502       Cr515   1.947   1_556  S
O502        C503   1.253       .  A
C503        C813   1.483       .  S
O504       Cr513   1.940       .  S
O504        C512   1.253       .  A
O505       Cr513   2.052   1_655  S
O505        C506   1.277       .  A
C506        C603   1.470       .  S
C506        O507   1.253   1_655  A
O507       Cr514   1.939       .  S
O508       Cr514   2.066       .  S
O508        C509   1.280       .  A
C509        C614   1.487       .  S
C509        O510   1.249       .  A
O510       Cr515   1.929       .  S
O511       Cr515   2.047       .  S
O511        C512   1.275       .  A
C512        C586   1.477       .  S
Cr513       O516   1.756       .  S
Cr514       O516   1.755       .  S
Cr515       O516   1.752       .  S
N517        C522   1.346       .  A
N517        C521   1.346       .  A
N517        H549   1.042       .  S
N518        C525   1.354       .  A
N518        C526   1.351   1_655  A
N519        C524   1.356       .  A
N519        C523   1.354       .  A
N519        H550   1.038       .  S
N520        C527   1.353       .  A
N520        C528   1.348       .  A
C521        C529   1.389       .  A
C521        C537   1.404       .  A
C522        C538   1.401       .  A
C522        C530   1.385       .  A
C523        C531   1.388       .  A
C523        C540   1.421   1_655  A
C524        C539   1.419       .  A
C524        C532   1.386       .  A
C525        C537   1.415       .  A
C525        C533   1.384   1_655  A
C526        C540   1.421       .  A
C526        C534   1.390       .  A
C527        C535   1.385       .  A
C527        C538   1.414       .  A
C528        C536   1.387       .  A
C528        C539   1.414       .  A
C529        C530   1.371       .  A
C529        H541   1.083       .  S
C530        H542   1.083       .  S
C531        C532   1.378       .  A
C531        H543   1.082       .  S
C532        H544   1.082       .  S
C533        C534   1.379       .  A
C533        H545   1.082       .  S
C534        H546   1.082       .  S
C535        C536   1.380       .  A
C535        H547   1.082       .  S
C536        H548   1.082       .  S
C537        C600   1.489       .  S
C538        C645   1.488       .  S
C539        C687   1.491       .  S
C540        C659   1.492       .  S
N551        C556   1.348       .  A
N551        C555   1.348       .  A
N551        H583   1.040   1_554  S
N552        C559   1.354       .  A
N552        C560   1.350       .  A
N553        C558   1.356       .  A
N553        C557   1.357       .  A
N553        H584   1.037   1_554  S
N554        C561   1.356   1_554  A
N554        C562   1.352   1_554  A
C555        C563   1.386       .  A
C555        C571   1.402       .  A
C556        C572   1.407       .  A
C556        C564   1.389       .  A
C557        C565   1.387       .  A
C557        C574   1.422       .  A
C558        C573   1.423   1_554  A
C558        C566   1.387       .  A
C559        C571   1.412       .  A
C559        C567   1.384       .  A
C560        C574   1.419       .  A
C560        C568   1.389       .  A
C561        C569   1.383       .  A
C561        C572   1.416   1_556  A
C562        C570   1.390       .  A
C562        C573   1.424       .  A
C563        C564   1.370       .  A
C563        H575   1.083       .  S
C564        H576   1.083       .  S
C565        C566   1.379       .  A
C565        H577   1.082       .  S
C566        H578   1.082       .  S
C567        C568   1.378       .  A
C567        H579   1.082       .  S
C568        H580   1.082       .  S
C569        C570   1.378       .  A
C569        H581   1.082       .  S
C570        H582   1.082       .  S
C571        C589   1.484       .  S
C572        C897   1.489       .  S
C573       C1079   1.497       .  S
C574        C628   1.493       .  S
C585        C586   1.400   1_556  A
C585        C590   1.409       .  A
C585        H592   1.084       .  S
C586        C587   1.417       .  A
C587        C588   1.401       .  A
C587        N594   1.438       .  S
C588        C589   1.396       .  A
C588        H593   1.084       .  S
C589        C590   1.415   1_554  A
C590        N591   1.438       .  S
N591        H595   1.046       .  S
N591        H596   1.045       .  S
N594        H597   1.046       .  S
N594        H598   1.044       .  S
C599        C600   1.399       .  A
C599        C604   1.407       .  A
C599        H606   1.084       .  S
C600        C601   1.414   1_655  A
C601        C602   1.400       .  A
C601        N608   1.433       .  S
C602        C603   1.395   1_455  A
C602        H607   1.081       .  S
C603        C604   1.416       .  A
C604        N605   1.438       .  S
N605        H609   1.046       .  S
N605        H610   1.045       .  S
N608        H611   1.046       .  S
N608        H612   1.046       .  S
C613        C614   1.402   1_565  A
C613        C618   1.407       .  A
C613        H620   1.084       .  S
C614        C615   1.423       .  A
C615        C616   1.398       .  A
C615        N622   1.433       .  S
C616        C617   1.393       .  A
C616        H621   1.084       .  S
C617        C618   1.413   1_545  A
C618        N619   1.432       .  S
N619        H623   1.046       .  S
N619        H624   1.046       .  S
N622        H625   1.046       .  S
N622        H626   1.046       .  S
C627        C628   1.404       .  A
C627        C632   1.405       .  A
C627        H634   1.084       .  S
C628        C629   1.410   1_554  A
C629        C630   1.399   1_556  A
C629        N636   1.432       .  S
C630        C631   1.409       .  A
C630        H635   1.084   1_554  S
C631        C632   1.419       .  A
C632        N633   1.432       .  S
N633        H637   1.043       .  S
N633        H638   1.045       .  S
N636        H639   1.045       .  S
N636        H640   1.045       .  S
C641        C642   1.415       .  A
C641        C646   1.397       .  A
C641        H648   1.084       .  S
C642        C643   1.414       .  A
C643        C644   1.403       .  A
C643        N650   1.432   1_655  S
C644        C645   1.411       .  A
C644        H649   1.084   1_655  S
C645        C646   1.400       .  A
C646        N647   1.433       .  S
N647        H651   1.046       .  S
N647        H652   1.046       .  S
N650        H653   1.044       .  S
N650        H654   1.045       .  S
C655        C656   1.410   1_655  A
C655        C660   1.403       .  A
C655        H662   1.084       .  S
C656        C657   1.414       .  A
C657        C658   1.412       .  A
C657        N664   1.437       .  S
C658        C659   1.405       .  A
C658        H663   1.083       .  S
C659        C660   1.407   1_455  A
C660        N661   1.438       .  S
N661        H665   1.045       .  S
N661        H666   1.046       .  S
N664        H667   1.046       .  S
N664        H668   1.046       .  S
C669        C670   1.411   1_565  A
C669        C674   1.401       .  A
C669        H676   1.084       .  S
C670        C671   1.404       .  A
C671        C672   1.404       .  A
C671        N678   1.431       .  S
C672        C673   1.408       .  A
C672        H677   1.084       .  S
C673        C674   1.411   1_545  A
C674        N675   1.437       .  S
N675        H679   1.046       .  S
N675        H680   1.043       .  S
N678        H681   1.045       .  S
N678        H682   1.046       .  S
C683        C684   1.409       .  A
C683        C688   1.403       .  A
C683        H690   1.084   1_655  S
C684        C685   1.413       .  A
C685        C686   1.409       .  A
C685        N692   1.435       .  S
C686        C687   1.403       .  A
C686        H691   1.084       .  S
C687        C688   1.413       .  A
C688        N689   1.438   1_655  S
N689        H693   1.045       .  S
N689        H694   1.043       .  S
N692        H695   1.045       .  S
N692        H696   1.046       .  S
C697        C698   1.399       .  A
C697        C702   1.405       .  A
C697        H704   1.084       .  S
C698        C699   1.410       .  A
C699        C700   1.401       .  A
C699        N706   1.432       .  S
C700        C701   1.399       .  A
C700        H705   1.084       .  S
C701        C702   1.414       .  A
C702        N703   1.437       .  S
N703        H707   1.046       .  S
N703        H708   1.045       .  S
N706        H709   1.046       .  S
N706        H710   1.046       .  S
C711        C712   1.404       .  A
C711        C716   1.403       .  A
C711        H718   1.085       .  S
C712        C713   1.401       .  A
C713        C714   1.402       .  A
C713        N720   1.438       .  S
C714        C715   1.417       .  A
C714        H719   1.084       .  S
C715        C716   1.426       .  A
C716        N717   1.439       .  S
N717        H721   1.046       .  S
N717        H722   1.036       .  S
N720        H723   1.046       .  S
N720        H724   1.046       .  S
C725        C726   1.406       .  A
C725        C730   1.408       .  A
C725        H732   1.084       .  S
C726        C727   1.421       .  A
C727        C728   1.403       .  A
C727        N734   1.434       .  S
C728        C729   1.402       .  A
C728        H733   1.084       .  S
C729        C730   1.409       .  A
C730        N731   1.437       .  S
N731        H735   1.046       .  S
N731        H736   1.046       .  S
N734        H737   1.046       .  S
N734        H738   1.043       .  S
C739        C740   1.393       .  A
C739        C744   1.399       .  A
C739        H746   1.084       .  S
C740        C741   1.413       .  A
C741        C742   1.407       .  A
C741        N748   1.432       .  S
C742        C743   1.400       .  A
C742        H747   1.084       .  S
C743        C744   1.421       .  A
C744        N745   1.434       .  S
N745        H749   1.046       .  S
N745        H750   1.046       .  S
N748        H751   1.046       .  S
N748        H752   1.045       .  S
C753        C754   1.403   1_655  A
C753        C758   1.406       .  A
C753        H760   1.084       .  S
C754        C755   1.411       .  A
C755        C756   1.406       .  A
C755        N762   1.432       .  S
C756        C757   1.404       .  A
C756        H761   1.084       .  S
C757        C758   1.419   1_455  A
C758        N759   1.438       .  S
N759        H763   1.046       .  S
N759        H764   1.045       .  S
N762        H765   1.045       .  S
N762        H766   1.046       .  S
C767        C768   1.407       .  A
C767        C772   1.414       .  A
C767        H774   1.084       .  S
C768        C769   1.414       .  A
C769        C770   1.396       .  A
C769        N776   1.439   1_655  S
C770        C771   1.407       .  A
C770        H775   1.084   1_655  S
C771        C772   1.416       .  A
C772        N773   1.438       .  S
N773        H777   1.046       .  S
N773        H778   1.044       .  S
N776        H779   1.042       .  S
N776        H780   1.045       .  S
C781        C782   1.408       .  A
C781        C786   1.399       .  A
C781        H788   1.085       .  S
C782        C783   1.415   1_655  A
C783        C784   1.403       .  A
C783        N790   1.438       .  S
C784        C785   1.406   1_455  A
C784        H789   1.084       .  S
C785        C786   1.411       .  A
C786        N787   1.437       .  S
N787        H791   1.046       .  S
N787        H792   1.041       .  S
N790        H793   1.042       .  S
N790        H794   1.046       .  S
C795        C796   1.410   1_655  A
C795        C800   1.409       .  A
C795        H802   1.084       .  S
C796        C797   1.402       .  A
C797        C798   1.399       .  A
C797        N804   1.438       .  S
C798        C799   1.410       .  A
C798        H803   1.080       .  S
C799        C800   1.408   1_455  A
C800        N801   1.437       .  S
N801        H805   1.046       .  S
N801        H806   1.043       .  S
N804        H807   1.046       .  S
N804        H808   1.046       .  S
C809        C810   1.401   1_565  A
C809        C814   1.405       .  A
C809        H816   1.084       .  S
C810        C811   1.414       .  A
C811        C812   1.410       .  A
C811        N818   1.438       .  S
C812        C813   1.403       .  A
C812        H817   1.084       .  S
C813        C814   1.416   1_545  A
C814        N815   1.438       .  S
N815        H819   1.046       .  S
N815        H820   1.046   1_455  S
N818        H821   1.044       .  S
N818        H822   1.046       .  S
C823        C824   1.404       .  A
C823        C828   1.408       .  A
C823        H830   1.084       .  S
C824        C825   1.415       .  A
C825        C826   1.406   1_565  A
C825        N832   1.433   1_565  S
C826        C827   1.401   1_545  A
C826        H831   1.084       .  S
C827        C828   1.410       .  A
C828        N829   1.432       .  S
N829        H833   1.046       .  S
N829        H834   1.045       .  S
N832        H835   1.046       .  S
N832        H836   1.045       .  S
C837        C838   1.409       .  A
C837        C842   1.404   1_554  A
C837        H844   1.084   1_554  S
C838        C839   1.415       .  A
C839        C840   1.410       .  A
C839        N846   1.435       .  S
C840        C841   1.402       .  A
C840        H845   1.084       .  S
C841        C842   1.403   1_554  A
C842        N843   1.432       .  S
N843        H847   1.045       .  S
N843        H848   1.045       .  S
N846        H849   1.045       .  S
N846        H850   1.046       .  S
C851        C852   1.394       .  A
C851        C856   1.400       .  A
C851        H858   1.084       .  S
C852        C853   1.413   1_554  A
C853        C854   1.404       .  A
C853        N860   1.432       .  S
C854        C855   1.400   1_556  A
C854        H859   1.084       .  S
C855        C856   1.424       .  A
C856        N857   1.440       .  S
N857        H861   1.046       .  S
N857        H862   1.046       .  S
N860        H863   1.045       .  S
N860        H864   1.046       .  S
C865        C866   1.404       .  A
C865        C870   1.405       .  A
C865        H872   1.084       .  S
C866        C867   1.414   1_545  A
C867        C868   1.404       .  A
C867        N874   1.433       .  S
C868        C869   1.400   1_565  A
C868        H873   1.084       .  S
C869        C870   1.418       .  A
C870        N871   1.438       .  S
N871        H875   1.046       .  S
N871        H876   1.044       .  S
N874        H877   1.046       .  S
N874        H878   1.045       .  S
C879        C880   1.404       .  A
C879        C884   1.401       .  A
C879        H886   1.084       .  S
C880        C881   1.416   1_545  A
C881        C882   1.403       .  A
C881        N888   1.438       .  S
C882        C883   1.402   1_565  A
C882        H887   1.083       .  S
C883        C884   1.415       .  A
C884        N885   1.439       .  S
N885        H889   1.046       .  S
N885        H890   1.043       .  S
N888        H891   1.043       .  S
N888        H892   1.046       .  S
C893        C894   1.406   1_554  A
C893        C898   1.408       .  A
C893        H900   1.084       .  S
C894        C895   1.406       .  A
C895        C896   1.404       .  A
C895        N902   1.438       .  S
C896        C897   1.407   1_556  A
C896        H901   1.084       .  S
C897        C898   1.408       .  A
C898        N899   1.437       .  S
N899        H903   1.046       .  S
N899        H904   1.045       .  S
N902        H905   1.045       .  S
N902        H906   1.046       .  S
C907        C908   1.408       .  A
C907        C912   1.407       .  A
C907        H914   1.084       .  S
C908        C909   1.415       .  A
C909        C910   1.400   1_556  A
C909        N916   1.433   1_556  S
C910        C911   1.399   1_554  A
C910        H915   1.084       .  S
C911        C912   1.416       .  A
C912        N913   1.433       .  S
N913        H917   1.046       .  S
N913        H918   1.044       .  S
N916        H919   1.046       .  S
N916        H920   1.046       .  S
C921        C922   1.405       .  A
C921        C926   1.401       .  A
C921        H928   1.084       .  S
C922        C923   1.403       .  A
C923        C924   1.402       .  A
C923        N930   1.432       .  S
C924        C925   1.406       .  A
C924        H929   1.084       .  S
C925        C926   1.415       .  A
C926        N927   1.438       .  S
N927        H931   1.046       .  S
N927        H932   1.042       .  S
N930        H933   1.045       .  S
N930        H934   1.046       .  S
C935        C936   1.405       .  A
C935        C940   1.408       .  A
C935        H942   1.084       .  S
C936        C937   1.416   1_565  A
C937        C938   1.399       .  A
C937        N944   1.439       .  S
C938        C939   1.408   1_545  A
C938        H943   1.084       .  S
C939        C940   1.412       .  A
C940        N941   1.432       .  S
N941        H945   1.045       .  S
N941        H946   1.046       .  S
N944        H947   1.042       .  S
N944        H948   1.046       .  S
C949        C950   1.409       .  A
C949        C954   1.404       .  A
C949        H956   1.084       .  S
C950        C951   1.412       .  A
C951        C952   1.400       .  A
C951        N958   1.436       .  S
C952        C953   1.411       .  A
C952        H957   1.084       .  S
C953        C954   1.404       .  A
C954        N955   1.432       .  S
N955        H959   1.046       .  S
N955        H960   1.046       .  S
N958        H961   1.042       .  S
N958        H962   1.045       .  S
C963        C964   1.401   1_545  A
C963        C968   1.405       .  A
C963        H970   1.084       .  S
C964        C965   1.418       .  A
C965        C966   1.393       .  A
C965        N972   1.432       .  S
C966        C967   1.397       .  A
C966        H971   1.084       .  S
C967        C968   1.420   1_565  A
C968        N969   1.438       .  S
N969        H973   1.046       .  S
N969        H974   1.044       .  S
N972        H975   1.043       .  S
N972        H976   1.039       .  S
C977        C978   1.409       .  A
C977        C982   1.403       .  A
C977        H984   1.084       .  S
C978        C979   1.416       .  A
C979        C980   1.411       .  A
C979        N986   1.437       .  S
C980        C981   1.403       .  A
C980        H985   1.083       .  S
C981        C982   1.407       .  A
C982        N983   1.438       .  S
N983        H987   1.046       .  S
N983        H988   1.045       .  S
N986        H989   1.046       .  S
N986        H990   1.046       .  S
C991        C992   1.405       .  A
C991        C996   1.404       .  A
C991        H998   1.084       .  S
C992        C993   1.416       .  A
C993        C994   1.399       .  A
C993       N1000   1.440       .  S
C994        C995   1.408       .  A
C994        H999   1.085       .  S
C995        C996   1.415       .  A
C996        N997   1.430       .  S
N997       H1001   1.044       .  S
N997       H1002   1.045       .  S
N1000      H1003   1.042       .  S
N1000      H1004   1.046       .  S
C1005      C1006   1.403       .  A
C1005      C1010   1.404       .  A
C1005      H1012   1.084       .  S
C1006      C1007   1.404       .  A
C1007      C1008   1.400       .  A
C1007      N1014   1.433       .  S
C1008      C1009   1.411       .  A
C1008      H1013   1.084       .  S
C1009      C1010   1.420       .  A
C1010      N1011   1.432       .  S
N1011      H1015   1.044       .  S
N1011      H1016   1.045       .  S
N1014      H1017   1.045       .  S
N1014      H1018   1.046       .  S
C1019      C1020   1.403       .  A
C1019      C1024   1.404       .  A
C1019      H1026   1.084       .  S
C1020      C1021   1.405       .  A
C1021      C1022   1.404       .  A
C1021      N1028   1.438       .  S
C1022      C1023   1.411       .  A
C1022      H1027   1.084       .  S
C1023      C1024   1.418       .  A
C1024      N1025   1.432       .  S
N1025      H1029   1.042       .  S
N1025      H1030   1.045       .  S
N1028      H1031   1.046       .  S
N1028      H1032   1.046       .  S
C1033      C1034   1.398       .  A
C1033      C1038   1.399       .  A
C1033      H1040   1.085       .  S
C1034      C1035   1.420   1_556  A
C1035      C1036   1.399       .  A
C1035      N1042   1.439       .  S
C1036      C1037   1.399   1_554  A
C1036      H1041   1.084       .  S
C1037      C1038   1.421       .  A
C1038      N1039   1.440       .  S
N1039      H1043   1.046       .  S
N1039      H1044   1.043       .  S
N1042      H1045   1.042       .  S
N1042      H1046   1.045       .  S
C1047      C1048   1.400       .  A
C1047      C1052   1.408       .  A
C1047      H1054   1.082       .  S
C1048      C1049   1.412       .  A
C1049      C1050   1.404       .  A
C1049      N1056   1.440       .  S
C1050      C1051   1.403       .  A
C1050      H1055   1.084       .  S
C1051      C1052   1.412       .  A
C1052      N1053   1.437       .  S
N1053      H1057   1.046       .  S
N1053      H1058   1.046       .  S
N1056      H1059   1.043       .  S
N1056      H1060   1.046       .  S
C1061      C1062   1.409       .  A
C1061      C1066   1.405       .  A
C1061      H1068   1.084       .  S
C1062      C1063   1.412       .  A
C1063      C1064   1.406       .  A
C1063      N1070   1.435       .  S
C1064      C1065   1.402       .  A
C1064      H1069   1.084       .  S
C1065      C1066   1.406       .  A
C1066      N1067   1.438       .  S
N1067      H1071   1.046       .  S
N1067      H1072   1.046       .  S
N1070      H1073   1.045       .  S
N1070      H1074   1.046       .  S
C1075      C1076   1.411   1_554  A
C1075      C1080   1.402       .  A
C1075      H1082   1.084       .  S
C1076      C1077   1.412       .  A
C1077      C1078   1.412       .  A
C1077      N1084   1.431       .  S
C1078      C1079   1.407       .  A
C1078      H1083   1.084       .  S
C1079      C1080   1.405   1_556  A
C1080      N1081   1.432       .  S
N1081      H1085   1.046       .  S
N1081      H1086   1.046       .  S
N1084      H1087   1.045       .  S
N1084      H1088   1.045       .  S
C1089      C1090   1.403       .  A
C1089      C1094   1.409       .  A
C1089      H1096   1.084       .  S
C1090      C1091   1.404       .  A
C1091      C1092   1.403       .  A
C1091      N1098   1.437       .  S
C1092      C1093   1.411       .  A
C1092      H1097   1.084       .  S
C1093      C1094   1.415       .  A
C1094      N1095   1.437       .  S
N1095      H1099   1.046       .  S
N1095      H1100   1.043       .  S
N1098      H1101   1.045       .  S
N1098      H1102   1.046       .  S
C1103      C1104   1.407       .  A
C1103      C1108   1.408       .  A
C1103      H1110   1.084       .  S
C1104      C1105   1.415       .  A
C1105      C1106   1.400       .  A
C1105      N1112   1.439       .  S
C1106      C1107   1.409       .  A
C1106      H1111   1.084       .  S
C1107      C1108   1.418       .  A
C1108      N1109   1.432       .  S
N1109      H1113   1.045       .  S
N1109      H1114   1.045       .  S
N1112      H1115   1.042       .  S
N1112      H1116   1.046       .  S
C1117      C1118   1.407       .  A
C1117      C1122   1.398       .  A
C1117      H1124   1.085       .  S
C1118      C1119   1.403       .  A
C1119      C1120   1.402       .  A
C1119      N1126   1.432       .  S
C1120      C1121   1.407       .  A
C1120      H1125   1.084       .  S
C1121      C1122   1.411       .  A
C1122      N1123   1.436       .  S
N1123      H1127   1.046       .  S
N1123      H1128   1.042       .  S
N1126      H1129   1.045       .  S
N1126      H1130   1.045       .  S
C1131      C1132   1.401       .  A
C1131      C1136   1.401       .  A
C1131      H1138   1.084       .  S
C1132      C1133   1.416       .  A
C1133      C1134   1.405       .  A
C1133      N1140   1.432       .  S
C1134      C1135   1.402       .  A
C1134      H1139   1.084       .  S
C1135      C1136   1.420       .  A
C1136      N1137   1.440       .  S
N1137      H1141   1.046       .  S
N1137      H1142   1.044       .  S
N1140      H1143   1.046       .  S
N1140      H1144   1.045       .  S
C1145      C1146   1.410       .  A
C1145      C1150   1.403       .  A
C1145      H1152   1.084       .  S
C1146      C1147   1.414       .  A
C1147      C1148   1.410       .  A
C1147      N1154   1.436       .  S
C1148      C1149   1.403       .  A
C1148      H1153   1.084       .  S
C1149      C1150   1.403       .  A
C1150      N1151   1.432       .  S
N1151      H1155   1.046       .  S
N1151      H1156   1.046       .  S
N1154      H1157   1.046       .  S
N1154      H1158   1.046       .  S
C1159      C1160   1.404       .  A
C1159      C1164   1.411       .  A
C1159      H1166   1.084       .  S
C1160      C1161   1.405       .  A
C1161      C1162   1.400       .  A
C1161      N1168   1.439       .  S
C1162      C1163   1.409       .  A
C1162      H1167   1.084       .  S
C1163      C1164   1.417       .  A
C1164      N1165   1.437       .  S
N1165      H1169   1.046       .  S
N1165      H1170   1.045       .  S
N1168      H1171   1.044       .  S
N1168      H1172   1.046       .  S
C1173      C1174   1.395       .  A
C1173      C1178   1.399       .  A
C1173      H1180   1.084       .  S
C1174      C1175   1.422       .  A
C1175      C1176   1.405       .  A
C1175      N1182   1.438       .  S
C1176      C1177   1.401       .  A
C1176      H1181   1.084       .  S
C1177      C1178   1.419       .  A
C1178      N1179   1.432       .  S
N1179      H1183   1.046       .  S
N1179      H1184   1.046       .  S
N1182      H1185   1.044       .  S
N1182      H1186   1.046       .  S
C1187      C1188   1.399       .  A
C1187      C1192   1.405       .  A
C1187      H1194   1.084       .  S
C1188      C1189   1.415       .  A
C1189      C1190   1.404       .  A
C1189      N1196   1.439       .  S
C1190      C1191   1.398       .  A
C1190      H1195   1.084       .  S
C1191      C1192   1.414       .  A
C1192      N1193   1.438       .  S
N1193      H1197   1.046       .  S
N1193      H1198   1.045       .  S
N1196      H1199   1.044       .  S
N1196      H1200   1.046       .  S
C1201      C1202   1.400       .  A
C1201      C1206   1.403       .  A
C1201      H1208   1.084       .  S
C1202      C1203   1.413       .  A
C1203      C1204   1.412       .  A
C1203      N1210   1.438       .  S
C1204      C1205   1.407       .  A
C1204      H1209   1.083       .  S
C1205      C1206   1.416       .  A
C1206      N1207   1.438       .  S
N1207      H1211   1.046       .  S
N1207      H1212   1.045       .  S
N1210      H1213   1.044       .  S
N1210      H1214   1.046       .  S
C1215      C1216   1.403       .  A
C1215      C1220   1.405       .  A
C1215      H1222   1.084       .  S
C1216      C1217   1.419       .  A
C1217      C1218   1.404       .  A
C1217      N1224   1.438       .  S
C1218      C1219   1.403       .  A
C1218      H1223   1.084       .  S
C1219      C1220   1.419       .  A
C1220      N1221   1.439       .  S
N1221      H1225   1.046       .  S
N1221      H1226   1.044       .  S
N1224      H1227   1.043       .  S
N1224      H1228   1.046       .  S
C1229      C1230   1.401       .  A
C1229      C1234   1.408       .  A
C1229      H1236   1.084       .  S
C1230      C1231   1.422       .  A
C1231      C1232   1.401       .  A
C1231      N1238   1.438       .  S
C1232      C1233   1.398       .  A
C1232      H1237   1.083       .  S
C1233      C1234   1.415       .  A
C1234      N1235   1.438       .  S
N1235      H1239   1.046       .  S
N1235      H1240   1.045       .  S
N1238      H1241   1.044       .  S
N1238      H1242   1.046       .  S
C1243      C1244   1.411       .  A
C1243      C1248   1.412       .  A
C1243      H1250   1.084       .  S
C1244      C1245   1.403       .  A
C1245      C1246   1.400       .  A
C1245      N1252   1.438       .  S
C1246      C1247   1.411       .  A
C1246      H1251   1.078       .  S
C1247      C1248   1.409       .  A
C1248      N1249   1.437       .  S
N1249      H1253   1.046       .  S
N1249      H1254   1.042       .  S
N1252      H1255   1.046       .  S
N1252      H1256   1.046       .  S
