geometry optimzed in LAMMPS
_audit_creation_date              2020-11-30 
_audit_creation_method            'lammps2cif' 
_symmetry_space_group_name_H-M    'P1' 
_symmetry_Int_Tables_number       1 
_symmetry_cell_setting            triclinic 
loop_ 
_symmetry_equiv_pos_as_xyz 
  x,y,z 
_cell_length_a                    29.24511717 
_cell_length_b                    28.78936535237397 
_cell_length_c                    28.882187386424956 
_cell_angle_alpha                 90.34255685817294 
_cell_angle_beta                  90.16913175845289 
_cell_angle_gamma                 90.0681452854292 
loop_ 
_atom_site_label 
_atom_site_type_symbol 
_atom_site_fract_x 
_atom_site_fract_y 
_atom_site_fract_z 
_atom_site_charge 
N1          N  0.58273034  0.44348304  0.05497985    -0.05000
N2          N  0.61076596  0.43544173  0.08962761    -0.57200
N3          N  0.55420171  0.41579060  0.44766323    -0.04700
N4          N  0.56318077  0.38631124  0.41383513    -0.59300
N5          N  0.58607733  0.44786666  0.45029716    -0.04300
N6          N  0.61753050  0.44097802  0.41858741    -0.57100
N7          N  0.55075315  0.41156775  0.05273743    -0.04000
N8          N  0.55625534  0.38082271  0.08571268    -0.59600
C9          C  0.59361865  0.39645007  0.10852192     0.97100
C10         C  0.60265752  0.40271401  0.39593292     0.96900
N11         N  0.41711259  0.45078297  0.44505692    -0.05200
N12         N  0.38713352  0.44426333  0.41161437    -0.57700
N13         N  0.44487094  0.41240726  0.05088293    -0.03300
N14         N  0.43777029  0.38373428  0.08565856    -0.59000
N15         N  0.41390589  0.44529043  0.05079161    -0.05300
N16         N  0.38510956  0.43999281  0.08522541    -0.58000
N17         N  0.44827821  0.41811720  0.44454519    -0.03000
N18         N  0.44048752  0.38870802  0.41058477    -0.59100
Mn19       Mn  0.49934763  0.41234620  0.99871588     1.18400
C20         C  0.40238949  0.40550220  0.39020426     0.99200
C21         C  0.40038283  0.40162734  0.10687939     0.99900
N22         N  0.58810346  0.55595063  0.45580356    -0.05300
N23         N  0.61943592  0.56494600  0.42443127    -0.61600
N24         N  0.55362813  0.58261359  0.06234977    -0.04100
N25         N  0.56111673  0.61052839  0.09788789    -0.62300
N26         N  0.58437287  0.54955680  0.06085669    -0.04800
N27         N  0.61341904  0.55387791  0.09530710    -0.61800
N28         N  0.55735941  0.58913843  0.45719390    -0.03700
N29         N  0.56710460  0.62166046  0.42693013    -0.62500
Mn30       Mn  0.58682868  0.49930026  0.50550944     1.10700
C31         C  0.60571711  0.60591969  0.40663684     1.00400
C32         C  0.59841906  0.59183303  0.11820025     1.00500
N33         N  0.41681231  0.55112086  0.05627092    -0.04800
N34         N  0.38696081  0.55547166  0.08975021    -0.60200
N35         N  0.45061037  0.59018764  0.45427740    -0.04100
N36         N  0.44304026  0.62282316  0.42347840    -0.56900
N37         N  0.41912202  0.55774749  0.45142792    -0.05400
N38         N  0.38952160  0.56722944  0.41861957    -0.59700
N39         N  0.44843091  0.58331204  0.05938096    -0.04400
N40         N  0.44074720  0.61063585  0.09516123    -0.56900
Mn41       Mn  0.41498761  0.50106155  0.00073903     1.20200
Mn42       Mn  0.50249374  0.58844963  0.50830464     1.10100
Cl43       Cl  0.50092804  0.50017319  0.00275408    -0.84900
C44         C  0.40240152  0.59252220  0.11379102     0.97500
C45         C  0.40504925  0.60762087  0.40138070     0.97200
N46         N  0.41271690  0.94117717  0.04937616    -0.05000
N47         N  0.37696219  0.91515305  0.05978788    -0.57200
N48         N  0.44328637  0.04463745  0.08793885    -0.04700
N49         N  0.43012365  0.07025997  0.12362240    -0.59300
N50         N  0.41227190  0.04589505  0.05470214    -0.04300
N51         N  0.37759482  0.07249453  0.06720149    -0.57100
N52         N  0.44333836  0.94000771  0.08305683    -0.04000
N53         N  0.42840753  0.91327408  0.11705006    -0.59600
C54         C  0.38730074  0.89760985  0.10173648     0.97100
C55         C  0.38928636  0.08744781  0.11005417     0.96900
N56         N  0.58574237  0.04874519  0.05830744    -0.05200
N57         N  0.61953788  0.07610395  0.07208824    -0.57700
N58         N  0.55567111  0.94141452  0.08495682    -0.03300
N59         N  0.56928864  0.91401421  0.11898911    -0.59000
N60         N  0.58757051  0.94364115  0.05278671    -0.05300
N61         N  0.62309128  0.91783745  0.06435489    -0.58000
N62         N  0.55380037  0.04689563  0.09036397    -0.03000
N63         N  0.56557042  0.07316914  0.12634974    -0.59100
Mn64       Mn  0.49908151  0.99301302  0.08703720     1.18400
C65         C  0.60662962  0.09155337  0.11445108     0.99200
C66         C  0.61109102  0.89920609  0.10531503     0.99900
N67         N  0.41359604  0.05098317  0.44313184    -0.05300
N68         N  0.37839075  0.07709133  0.43087659    -0.61600
N69         N  0.44693772  0.94745217  0.40584623    -0.04100
N70         N  0.43442195  0.92250609  0.36921832    -0.62300
N71         N  0.41479184  0.94599479  0.43773082    -0.04800
N72         N  0.38015301  0.92020337  0.42322088    -0.61800
N73         N  0.44595118  0.05290175  0.41150060    -0.03700
N74         N  0.43310816  0.08054431  0.37744782    -0.62500
Mn75       Mn  0.41330041  0.99596192  0.99623060     1.10700
C76         C  0.39103166  0.09581971  0.38998260     1.00400
C77         C  0.39272712  0.90536607  0.38058529     1.00500
N78         N  0.58965719  0.94796589  0.44106230    -0.04800
N79         N  0.62525692  0.92310002  0.42730909    -0.60200
N80         N  0.55737590  0.05361025  0.41366808    -0.04100
N81         N  0.57172054  0.08074849  0.37982388    -0.56900
N82         N  0.58800328  0.05273656  0.44729793    -0.05400
N83         N  0.62330781  0.07940100  0.43702834    -0.59700
N84         N  0.55814551  0.94867869  0.40829029    -0.04400
N85         N  0.57184450  0.92409235  0.37205263    -0.56900
Mn86       Mn  0.58773285  0.99852256  0.99979869     1.20200
Mn87       Mn  0.50207369  0.00067782  0.40950878     1.10100
Cl88       Cl  0.50052001  0.99694611  0.99810960    -0.84900
C89         C  0.61364131  0.90794923  0.38432585     0.97500
C90         C  0.61251489  0.09697735  0.39520237     0.97200
N91         N  0.94889111  0.58426877  0.05695699    -0.05000
N92         N  0.92272281  0.61947916  0.06987788    -0.57200
N93         N  0.05166091  0.54919116  0.09101797    -0.04700
N94         N  0.07827815  0.56072056  0.12651783    -0.59300
N95         N  0.05282147  0.58207611  0.05948085    -0.04300
N96         N  0.08008299  0.61619700  0.07303078    -0.57100
N97         N  0.94736002  0.55104964  0.08815850    -0.04000
N98         N  0.92000396  0.56328879  0.12257519    -0.59600
C99         C  0.90445176  0.60597089  0.11072012     0.97100
C100        C  0.09617560  0.60255862  0.11476044     0.96900
N101        N  0.04905862  0.40561945  0.05272852    -0.05200
N102        N  0.07405176  0.36924018  0.06411313    -0.57700
N103        N  0.94583443  0.43805954  0.08423291    -0.03300
N104        N  0.91957478  0.42335544  0.11844141    -0.59000
N105        N  0.94602867  0.40724924  0.05019720    -0.05300
N106        N  0.91973802  0.37141933  0.06064050    -0.58000
N107        N  0.04856752  0.43624762  0.08691295    -0.03000
N108        N  0.07298787  0.42088008  0.12227635    -0.59100
Mn109      Mn  0.99834733  0.49377314  0.08800905     1.18400
C110        C  0.08859736  0.37919138  0.10743756     0.99200
C111        C  0.90320115  0.38206432  0.10300433     0.99900
N112        N  0.05566127  0.58583319  0.44825759    -0.05300
N113        N  0.08310211  0.62094676  0.43843922    -0.61600
N114        N  0.95282302  0.55751127  0.41060984    -0.04100
N115        N  0.92854341  0.57290666  0.37508988    -0.62300
N116        N  0.95199260  0.58804405  0.44487490    -0.04800
N117        N  0.92671065  0.62426494  0.43340313    -0.61800
N118        N  0.05583868  0.55504072  0.41421396    -0.03700
N119        N  0.08307772  0.56911331  0.38054978    -0.62500
Mn120      Mn  0.00232208  0.58512209  0.00247253     1.10700
C121        C  0.10034860  0.60984504  0.39645671     1.00400
C122        C  0.91223163  0.61434708  0.38997162     1.00500
N123        N  0.94852350  0.41157117  0.43888050    -0.04800
N124        N  0.92146668  0.37730021  0.42539250    -0.60200
N125        N  0.05386140  0.44218129  0.40981672    -0.04100
N126        N  0.08094891  0.42969747  0.37527757    -0.56900
N127        N  0.05231374  0.40898985  0.44102315    -0.05400
N128        N  0.07820890  0.37356714  0.42799956    -0.59700
N129        N  0.94969501  0.44434752  0.40721260    -0.04400
N130        N  0.92330011  0.43254587  0.37165703    -0.56900
Mn131      Mn  0.99897899  0.40824390  0.99559123     1.20200
Mn132      Mn  0.00303735  0.49970336  0.41000814     1.10100
Cl133      Cl  0.00061506  0.49668536  0.99901693    -0.84900
C134        C  0.90553725  0.39069584  0.38355830     0.97500
C135        C  0.09632930  0.38689933  0.38703982     0.97200
C136        C  0.26263170  0.25871632  0.20332133     0.46500
H137        H  0.26613611  0.25883273  0.16589002    -0.02500
C138        C  0.25502365  0.25389674  0.29242540     0.46600
H139        H  0.25234308  0.25219335  0.33051357    -0.02500
C140        C  0.29281500  0.29392897  0.22980475    -0.16200
C141        C  0.21372628  0.27003637  0.21972634    -0.15900
C142        C  0.27726764  0.21120136  0.22227267    -0.16300
C143        C  0.28856378  0.29117404  0.27656089    -0.16300
C144        C  0.20992078  0.26872467  0.26779721    -0.15800
C145        C  0.27411936  0.20859999  0.26996687    -0.16200
C146        C  0.73858925  0.25127249  0.20494553     0.46500
H147        H  0.73456667  0.24728999  0.16690280    -0.02500
C148        C  0.74692140  0.25947328  0.29381593     0.46600
H149        H  0.75102846  0.26347495  0.33182968    -0.02500
C150        C  0.70725099  0.28822744  0.22616815    -0.16200
C151        C  0.72513494  0.20672757  0.23119542    -0.15900
C152        C  0.78696741  0.26751442  0.21969717    -0.16300
C153        C  0.71172220  0.29265485  0.27307368    -0.16300
C154        C  0.72907266  0.21098010  0.27887524    -0.15800
C155        C  0.79119633  0.27146490  0.26738378    -0.16200
C156        C  0.25488375  0.73427516  0.20602674     0.46500
H157        H  0.25210009  0.72777034  0.16821778    -0.02500
C158        C  0.26022909  0.74749257  0.29458840     0.46600
H159        H  0.26281262  0.75383350  0.33244235    -0.02500
C160        C  0.29088371  0.70417235  0.22988066    -0.16200
C161        C  0.27002418  0.78424248  0.21857354    -0.15900
C162        C  0.21039950  0.72172136  0.23169335    -0.16300
C163        C  0.29391589  0.71125996  0.27654929    -0.16300
C164        C  0.27267905  0.79107056  0.26607426    -0.15800
C165        C  0.21315716  0.72770283  0.27930480    -0.16200
C166        C  0.74673103  0.73754498  0.20642941     0.46500
H167        H  0.74742365  0.73218683  0.16835495    -0.02500
C168        C  0.74667396  0.74964663  0.29519491     0.46600
H169        H  0.74636710  0.75617479  0.33304894    -0.02500
C170        C  0.71274274  0.70601103  0.23179790    -0.16200
C171        C  0.79305187  0.72580902  0.22921503    -0.15900
C172        C  0.73144577  0.78693169  0.22055373    -0.16300
C173        C  0.71266391  0.71239725  0.27883524    -0.16300
C174        C  0.79320245  0.73114775  0.27698475    -0.15800
C175        C  0.73170470  0.79329580  0.26811383    -0.16200
C176        C  0.13040067  0.68053761  0.13607372     0.24700
C177        C  0.12400326  0.63305606  0.14627518    -0.23400
C178        C  0.14397332  0.61555545  0.18707652     0.19600
C179        C  0.17007763  0.64449179  0.21637786     0.24600
C180        C  0.17638896  0.69196917  0.20598955    -0.23400
C181        C  0.15616706  0.70939575  0.16551237     0.19500
F182        F  0.16246452  0.75454687  0.15375005    -0.13300
F183        F  0.11202616  0.69937955  0.09728807    -0.15700
F184        F  0.19239442  0.62493305  0.25259997    -0.15700
F185        F  0.14013386  0.56983905  0.19765981    -0.13300
C186        C  0.20171393  0.67687933  0.35087186     0.24700
C187        C  0.18274523  0.70218847  0.31331644    -0.23400
C188        C  0.13498351  0.69909226  0.30647505     0.19600
C189        C  0.10824591  0.66862372  0.33309751     0.24600
C190        C  0.12819727  0.64202242  0.36841677    -0.23400
C191        C  0.17473566  0.64739905  0.37783291     0.19500
F192        F  0.19456296  0.62290695  0.41257003    -0.13300
F193        F  0.24666641  0.67885220  0.36153185    -0.15700
F194        F  0.06271390  0.66516898  0.32449627    -0.15700
F195        F  0.11411908  0.72523852  0.27370980    -0.13300
C196        C  0.15618693  0.27982843  0.33557411     0.24700
C197        C  0.17672504  0.29791538  0.29551016    -0.23400
C198        C  0.17011912  0.34553907  0.28598916     0.19600
C199        C  0.14418536  0.37398303  0.31544832     0.24600
C200        C  0.12414870  0.35610465  0.35586381    -0.23400
C201        C  0.13017930  0.30837652  0.36528298     0.19500
F202        F  0.11088457  0.28903277  0.40326102    -0.13300
F203        F  0.16145348  0.23426033  0.34611816    -0.15700
F204        F  0.13981183  0.41961276  0.30469478    -0.15700
F205        F  0.19014053  0.36563833  0.24898404    -0.13300
C206        C  0.10208435  0.32005387  0.16995245     0.24700
C207        C  0.11866948  0.34857856  0.13442899    -0.23400
C208        C  0.16472620  0.34681061  0.12299619     0.19600
C209        C  0.19492351  0.31955302  0.14830056     0.24600
C210        C  0.17988759  0.29304034  0.18695790    -0.23400
C211        C  0.13225181  0.29176824  0.19537101     0.19500
F212        F  0.11478098  0.26319124  0.22808593    -0.13300
F213        F  0.05673152  0.31936101  0.17978636    -0.15700
F214        F  0.23893252  0.32151830  0.13444448    -0.15700
F215        F  0.18103798  0.37290660  0.08762088    -0.13300
C216        C  0.79949687  0.32074384  0.15047551     0.24700
C217        C  0.81801389  0.29206323  0.18568822    -0.23400
C218        C  0.86609806  0.29100846  0.19049887     0.19600
C219        C  0.89407045  0.32014171  0.16356798     0.24600
C220        C  0.87466477  0.35023183  0.13073924    -0.23400
C221        C  0.82746890  0.34939410  0.12377326     0.19500
F222        F  0.80807661  0.37758943  0.09171121    -0.13300
F223        F  0.75404014  0.32340312  0.14251348    -0.15700
F224        F  0.94009741  0.31919291  0.16971547    -0.15700
F225        F  0.88600871  0.26224890  0.22167304    -0.13300
C226        C  0.87065430  0.31282059  0.36324235     0.24700
C227        C  0.87803559  0.35994251  0.35214012    -0.24100
C228        C  0.85920412  0.37691175  0.31062080     0.19600
C229        C  0.83263607  0.34804853  0.28181978     0.24600
C230        C  0.82580284  0.30075335  0.29269384    -0.23400
C231        C  0.84530560  0.28369338  0.33371653     0.19500
F232        F  0.83827381  0.23884534  0.34619227    -0.13300
F233        F  0.88742597  0.29467629  0.40309438    -0.15700
F234        F  0.81041605  0.36770306  0.24563131    -0.15700
F235        F  0.86452264  0.42215985  0.29880906    -0.13300
C236        C  0.80980419  0.68214341  0.34890268     0.24700
C237        C  0.82601163  0.70548717  0.30891491    -0.23400
C238        C  0.87303739  0.70058824  0.29832104     0.19600
C239        C  0.90103043  0.66993084  0.32361475     0.24600
C240        C  0.88357318  0.64598617  0.36200680    -0.23400
C241        C  0.83838943  0.65366994  0.37514788     0.19500
F242        F  0.82118401  0.63202433  0.41296389    -0.13300
F243        F  0.76587071  0.68485099  0.36288675    -0.15700
F244        F  0.94538294  0.66423912  0.31106544    -0.15700
F245        F  0.89212306  0.72541381  0.26355464    -0.13300
C246        C  0.84716058  0.71377018  0.16265450     0.24700
C247        C  0.82533866  0.69575701  0.20193409    -0.23400
C248        C  0.82946740  0.64782013  0.21088098     0.19600
C249        C  0.85479152  0.61878679  0.18128280     0.24600
C250        C  0.87676571  0.63680514  0.14185528    -0.23400
C251        C  0.87282267  0.68487912  0.13318939     0.19500
F252        F  0.89390785  0.70426421  0.09621473    -0.13300
F253        F  0.84329547  0.75960411  0.15259480    -0.15700
F254        F  0.85628816  0.57261989  0.19045236    -0.15700
F255        F  0.80607193  0.62830762  0.24632012    -0.13300
C256        C  0.64789237  0.17258416  0.37552561     0.24700
C257        C  0.64437337  0.12496365  0.36730362    -0.23400
C258        C  0.67249027  0.10431022  0.33361021     0.19600
C259        C  0.70233396  0.13160832  0.30696916     0.24600
C260        C  0.70370146  0.18035024  0.31268610    -0.23400
C261        C  0.67704831  0.19997612  0.34888168     0.19500
F262        F  0.67726473  0.24595452  0.35835985    -0.13300
F263        F  0.62203898  0.19299294  0.40891611    -0.15700
F264        F  0.72960551  0.11037254  0.27536413    -0.15700
F265        F  0.67103854  0.05767291  0.32655343    -0.13300
C266        C  0.68413976  0.12373150  0.13691872     0.24700
C267        C  0.63697907  0.11920657  0.14625355    -0.23400
C268        C  0.61961730  0.14101743  0.18633932     0.19600
C269        C  0.64834334  0.16747207  0.21549543     0.24600
C270        C  0.69550042  0.17210408  0.20585134    -0.23400
C271        C  0.71282109  0.14973244  0.16629469     0.19500
F272        F  0.75772610  0.15412728  0.15534437    -0.13300
F273        F  0.70284764  0.10313613  0.09908046    -0.15700
F274        F  0.62905851  0.19182411  0.25071663    -0.15700
F275        F  0.57430896  0.13880523  0.19621231    -0.13300
C276        C  0.36277005  0.16555681  0.13256604     0.24700
C277        C  0.36031391  0.11774290  0.13877349    -0.23400
C278        C  0.32951257  0.09958318  0.17128821     0.19600
C279        C  0.30134648  0.12943569  0.19740769     0.24600
C280        C  0.30408740  0.17807005  0.19184127    -0.23400
C281        C  0.33515206  0.19531346  0.15833740     0.19500
F282        F  0.34078511  0.24117851  0.15081087    -0.13300
F283        F  0.39276409  0.18375160  0.10172815    -0.15700
F284        F  0.27139774  0.11076801  0.22792188    -0.15700
F285        F  0.32670047  0.05298951  0.17763038    -0.13300
C286        C  0.35036737  0.17123400  0.29034195     0.24700
C287        C  0.30303966  0.17627644  0.29882817    -0.23400
C288        C  0.28472799  0.15405998  0.33791482     0.19600
C289        C  0.31287191  0.12773342  0.36757227     0.24600
C290        C  0.36034591  0.12373883  0.35929010    -0.23400
C291        C  0.37843761  0.14589086  0.32019995     0.19500
F292        F  0.42403775  0.14481572  0.31156573    -0.13300
F293        F  0.37097328  0.19461398  0.25557922    -0.15700
F294        F  0.29344272  0.10597621  0.40416115    -0.15700
F295        F  0.23941479  0.15767087  0.34732016    -0.13300
C296        C  0.64290238  0.82313862  0.12916434     0.24700
C297        C  0.64253226  0.87134267  0.13401805    -0.23400
C298        C  0.67392295  0.89261706  0.16442748     0.19600
C299        C  0.70448728  0.86561453  0.19068512     0.24600
C300        C  0.70374725  0.81663301  0.18759217    -0.23400
C301        C  0.67305299  0.79609393  0.15519347     0.19500
F302        F  0.67030770  0.74963080  0.14911584    -0.13300
F303        F  0.61347002  0.80196531  0.09928303    -0.15700
F304        F  0.73469459  0.88740174  0.21923440    -0.15700
F305        F  0.67481774  0.93958382  0.16881447    -0.13300
C306        C  0.69234387  0.88026029  0.35972678     0.24700
C307        C  0.64456885  0.88138710  0.35257126    -0.23400
C308        C  0.62639875  0.85660440  0.31457086     0.19600
C309        C  0.65468808  0.82963852  0.28598131     0.24600
C310        C  0.70239385  0.82798953  0.29340489    -0.23400
C311        C  0.72080787  0.85390363  0.33045635     0.19500
F312        F  0.76646497  0.85270196  0.33902587    -0.13300
F313        F  0.71170832  0.90465177  0.39506325    -0.15700
F314        F  0.63462434  0.80197026  0.25362692    -0.15700
F315        F  0.58066467  0.85627370  0.30640686    -0.13300
C316        C  0.28527714  0.85070400  0.32823858     0.24700
C317        C  0.30246665  0.82662275  0.28968267    -0.23400
C318        C  0.34971010  0.83028321  0.27995043     0.19600
C319        C  0.37876680  0.85688368  0.30849850     0.24600
C320        C  0.36171355  0.87939185  0.34827411    -0.23400
C321        C  0.31434652  0.87667117  0.35716309     0.19500
F322        F  0.29586649  0.89884704  0.39422402    -0.13300
F323        F  0.24020114  0.84764218  0.33891382    -0.15700
F324        F  0.42409320  0.85830348  0.29854237    -0.15700
F325        F  0.36880507  0.80484217  0.24542849    -0.13300
C326        C  0.32341418  0.79423179  0.14919263     0.24700
C327        C  0.29505688  0.81427467  0.18381367    -0.23400
C328        C  0.29477838  0.86321220  0.18766524     0.19600
C329        C  0.32492971  0.89049753  0.16128266     0.24600
C330        C  0.35497413  0.86961351  0.12943567    -0.23400
C331        C  0.35273713  0.82164090  0.12257375     0.19500
F332        F  0.37998746  0.80096251  0.09053261    -0.13300
F333        F  0.32492972  0.74788941  0.14160025    -0.15700
F334        F  0.32490912  0.93733167  0.16697968    -0.15700
F335        F  0.26574810  0.88463517  0.21749254    -0.13300
C336        C  0.38078182  0.68286988  0.36847507     0.24700
C337        C  0.37976642  0.63418751  0.36720648    -0.23400
C338        C  0.35076880  0.61092385  0.33599180     0.19600
C339        C  0.32304356  0.63608610  0.30631928     0.24600
C340        C  0.32433875  0.68483933  0.30715523    -0.23400
C341        C  0.35282189  0.70801858  0.33889849     0.19500
F342        F  0.35300666  0.75489111  0.34221064    -0.13300
F343        F  0.40680441  0.70615160  0.40000631    -0.15700
F344        F  0.29304280  0.61281723  0.27871211    -0.15700
F345        F  0.34854053  0.56379725  0.33482741    -0.13300
C346        C  0.36802305  0.67770137  0.20538557     0.24700
C347        C  0.32032713  0.67235636  0.20400708    -0.23400
C348        C  0.30051307  0.63780517  0.17630286     0.19600
C349        C  0.32773131  0.60929552  0.14942630     0.24600
C350        C  0.37528785  0.61615840  0.14874898    -0.23400
C351        C  0.39545214  0.64981363  0.17761836     0.19500
F352        F  0.44139761  0.65673640  0.17781135    -0.13300
F353        F  0.38777797  0.71161764  0.23143052    -0.15700
F354        F  0.30696879  0.57711725  0.12189979    -0.15700
F355        F  0.25468648  0.63199206  0.17444164    -0.13300
C356        C  0.66037311  0.61008471  0.34085979     0.24700
C357        C  0.63245406  0.63271450  0.37336625    -0.23400
C358        C  0.63188828  0.68142303  0.37543291     0.19600
C359        C  0.65847939  0.70718442  0.34512412     0.24600
C360        C  0.68502050  0.68478615  0.31136437    -0.23400
C361        C  0.68647378  0.63596158  0.31000270     0.19500
F362        F  0.71435373  0.61332463  0.27994015    -0.13300
F363        F  0.66223205  0.56298891  0.33877525    -0.15700
F364        F  0.65826338  0.75402707  0.34916149    -0.15700
F365        F  0.60694001  0.70423173  0.40797089    -0.13300
C366        C  0.67423873  0.61537076  0.14643468     0.24700
C367        C  0.62663867  0.61670826  0.15173098    -0.23400
C368        C  0.60701678  0.64600747  0.18514793     0.19600
C369        C  0.63501495  0.67416422  0.21268934     0.24600
C370        C  0.68277291  0.67336079  0.20656453    -0.23400
C371        C  0.70183665  0.64392478  0.17305076     0.19500
F372        F  0.74716806  0.64387824  0.16430543    -0.13300
F373        F  0.69420391  0.58905335  0.11294570    -0.15700
F374        F  0.61531953  0.70434504  0.24286657    -0.15700
F375        F  0.56091403  0.64824347  0.19019197    -0.13300
C376        C  0.67785464  0.38188594  0.36217685     0.24700
C377        C  0.62995499  0.37772300  0.36153615    -0.23400
C378        C  0.60890756  0.34689484  0.33023419     0.19600
C379        C  0.63548746  0.31996081  0.30055694     0.24600
C380        C  0.68341301  0.32349149  0.30195991    -0.23400
C381        C  0.70432302  0.35453149  0.33296727     0.19500
F382        F  0.75042613  0.35807810  0.33554395    -0.13300
F383        F  0.69938302  0.41066797  0.39265512    -0.15700
F384        F  0.61453299  0.28862759  0.27230943    -0.15700
F385        F  0.56270685  0.34231598  0.32881639    -0.13300
C386        C  0.64608779  0.29461388  0.16700219     0.24700
C387        C  0.67611369  0.31642084  0.19811611    -0.23400
C388        C  0.67730056  0.36513526  0.20126662     0.19600
C389        C  0.64839823  0.39153694  0.17370540     0.24600
C390        C  0.61837165  0.36941357  0.14264685    -0.23400
C391        C  0.61682034  0.32081436  0.14004112     0.19500
F392        F  0.58918127  0.29851000  0.10923682    -0.13300
F393        F  0.64562427  0.24796116  0.16159614    -0.15700
F394        F  0.65055910  0.43860739  0.17649107    -0.15700
F395        F  0.70813408  0.38713033  0.22899255    -0.13300
C396        C  0.35562510  0.30258900  0.32698180     0.24700
C397        C  0.31529961  0.32030434  0.30825318    -0.23400
C398        C  0.30445557  0.36732071  0.31444527     0.19600
C399        C  0.33382953  0.39617836  0.33950271     0.24600
C400        C  0.37458263  0.37810645  0.35807630    -0.23400
C401        C  0.38565719  0.33125231  0.35054810     0.19500
F402        F  0.42505745  0.31239723  0.36683261    -0.13300
F403        F  0.36674591  0.25751224  0.32200343    -0.15700
F404        F  0.32232831  0.44149394  0.34557093    -0.15700
F405        F  0.26561000  0.38529009  0.29634259    -0.13300
C406        C  0.30559848  0.36800075  0.18793599     0.24700
C407        C  0.32342583  0.32722416  0.20676963    -0.23400
C408        C  0.37001622  0.31725706  0.20137281     0.19600
C409        C  0.39628198  0.34302165  0.17045780     0.24600
C410        C  0.37629876  0.37986993  0.14588343    -0.23400
C411        C  0.33151609  0.39392119  0.15712222     0.19500
F412        F  0.31161706  0.43104721  0.13647328    -0.13300
F413        F  0.26245324  0.38184432  0.19787306    -0.15700
F414        F  0.44053104  0.33079391  0.16335695    -0.15700
F415        F  0.38922566  0.28070552  0.22348989    -0.13300
N416        N  0.58243746  0.44372448  0.55544341    -0.05000
N417        N  0.61045078  0.43553438  0.59006073    -0.57200
N418        N  0.55402621  0.41558789  0.94721752    -0.04700
N419        N  0.56294235  0.38621194  0.91326237    -0.59300
N420        N  0.58584381  0.44773273  0.94977866    -0.04300
N421        N  0.61716599  0.44100906  0.91790428    -0.57100
N422        N  0.55045304  0.41182594  0.55306718    -0.04000
N423        N  0.55594250  0.38092076  0.58589888    -0.59600
C424        C  0.59328673  0.39647063  0.60878353     0.97100
C425        C  0.60230896  0.40276623  0.89521385     0.96900
N426        N  0.41679472  0.45039781  0.94537201    -0.05200
N427        N  0.38676750  0.44398748  0.91194781    -0.57700
N428        N  0.44463081  0.41279716  0.55067268    -0.03300
N429        N  0.43732019  0.38405414  0.58532997    -0.59000
N430        N  0.41368090  0.44568719  0.55044686    -0.05300
N431        N  0.38466202  0.44032203  0.58468251    -0.58000
N432        N  0.44799734  0.41776737  0.94468307    -0.03000
N433        N  0.44017935  0.38849051  0.91061375    -0.59100
Mn434      Mn  0.49932299  0.41267718  0.49883001     1.18400
C435        C  0.40203144  0.40533152  0.89035852     0.99200
C436        C  0.39980895  0.40190149  0.60633893     0.99900
N437        N  0.58772083  0.55572857  0.95534826    -0.05300
N438        N  0.61882612  0.56470283  0.92374289    -0.61600
N439        N  0.55356392  0.58292836  0.56256072    -0.04100
N440        N  0.56108382  0.61098271  0.59797677    -0.62300
N441        N  0.58423909  0.54980061  0.56123591    -0.04800
N442        N  0.61325371  0.55419699  0.59569469    -0.61800
N443        N  0.55692996  0.58885960  0.95686944    -0.03700
N444        N  0.56641113  0.62131789  0.92644943    -0.62500
Mn445      Mn  0.58678435  0.49909405  0.00505411     1.10700
C446        C  0.60491827  0.60560078  0.90592557     1.00400
C447        C  0.59832956  0.59229098  0.61839664     1.00500
N448        N  0.41676517  0.55148499  0.55593820    -0.04800
N449        N  0.38689890  0.55569451  0.58941540    -0.60200
N450        N  0.45022000  0.58981879  0.95446993    -0.04100
N451        N  0.44258659  0.62242818  0.92366670    -0.56900
N452        N  0.41872167  0.55737905  0.95172382    -0.05400
N453        N  0.38903999  0.56684319  0.91897106    -0.59700
N454        N  0.44838524  0.58366159  0.55919251    -0.04400
N455        N  0.44068366  0.61083870  0.59508044    -0.56900
Mn456      Mn  0.41510135  0.50145523  0.50040620     1.20200
Mn457      Mn  0.50232739  0.58811245  0.00827315     1.10100
Cl458      Cl  0.50101258  0.50050321  0.50281163    -0.84900
C459        C  0.40232360  0.59264645  0.61360914     0.97500
C460        C  0.40454127  0.60722885  0.90167492     0.97200
N461        N  0.41237247  0.94117097  0.54927853    -0.05000
N462        N  0.37656108  0.91516451  0.55954715    -0.57200
N463        N  0.44321242  0.04450465  0.58799501    -0.04700
N464        N  0.43004168  0.07011456  0.62368322    -0.59300
N465        N  0.41227417  0.04589912  0.55469175    -0.04300
N466        N  0.37764636  0.07258451  0.56714683    -0.57100
N467        N  0.44293152  0.93986197  0.58300686    -0.04000
N468        N  0.42791529  0.91304148  0.61688694    -0.59600
C469        C  0.38681621  0.89747763  0.60145785     0.97100
C470        C  0.38928792  0.08744594  0.61004304     0.96900
N471        N  0.58578315  0.04803659  0.55868064    -0.05200
N472        N  0.61966058  0.07525637  0.57252367    -0.57700
N473        N  0.55521124  0.94088065  0.58521292    -0.03300
N474        N  0.56874291  0.91354751  0.61933649    -0.59000
N475        N  0.58713286  0.94293820  0.55305299    -0.05300
N476        N  0.62256178  0.91705142  0.56470151    -0.58000
N477        N  0.55376856  0.04632922  0.59067567    -0.03000
N478        N  0.56557260  0.07256823  0.62668205    -0.59100
Mn479      Mn  0.49882802  0.99267894  0.58718151     1.18400
C480        C  0.60673426  0.09077240  0.61485522     0.99200
C481        C  0.61049688  0.89856654  0.60570365     0.99900
N482        N  0.41341132  0.05094051  0.94313707    -0.05300
N483        N  0.37824092  0.07716325  0.93100871    -0.61600
N484        N  0.44698146  0.94743616  0.90582965    -0.04100
N485        N  0.43446992  0.92244046  0.86922902    -0.62300
N486        N  0.41489725  0.94589495  0.93777430    -0.04800
N487        N  0.38031414  0.91998329  0.92333299    -0.61800
N488        N  0.44572797  0.05291004  0.91147700    -0.03700
N489        N  0.43292114  0.08069551  0.87754055    -0.62500
Mn490      Mn  0.41324732  0.99600410  0.49619900     1.10700
C491        C  0.39089421  0.09601412  0.89016462     1.00400
C492        C  0.39284794  0.90516454  0.88067393     1.00500
N493        N  0.58981304  0.94859784  0.94079253    -0.04800
N494        N  0.62548283  0.92385793  0.92700936    -0.60200
N495        N  0.55698545  0.05401899  0.91340044    -0.04100
N496        N  0.57114697  0.08118140  0.87950371    -0.56900
N497        N  0.58765924  0.05333175  0.94698684    -0.05400
N498        N  0.62281943  0.08014275  0.93664246    -0.59700
N499        N  0.55822309  0.94911389  0.90809179    -0.04400
N500        N  0.57193961  0.92451965  0.87186828    -0.56900
Mn501      Mn  0.58767292  0.99786244  0.50010521     1.20200
Mn502      Mn  0.50194377  0.00086390  0.90937540     1.10100
Cl503      Cl  0.50046325  0.99668354  0.49824542    -0.84900
C504        C  0.61382943  0.90858213  0.88408377     0.97500
C505        C  0.61187383  0.09762019  0.89482572     0.97200
N506        N  0.94871166  0.58436860  0.55696425    -0.05000
N507        N  0.92259318  0.61958358  0.56998845    -0.57200
N508        N  0.05152686  0.54946741  0.59097022    -0.04700
N509        N  0.07810514  0.56102270  0.62647954    -0.59300
N510        N  0.05260693  0.58238725  0.55946698    -0.04300
N511        N  0.07977533  0.61657047  0.57305514    -0.57100
N512        N  0.94727941  0.55114880  0.58817552    -0.04000
N513        N  0.92005329  0.56339878  0.62269136    -0.59600
C514        C  0.90446145  0.60608035  0.61090037     0.97100
C515        C  0.09588738  0.60291568  0.61477038     0.96900
N516        N  0.04918680  0.40592207  0.55272372    -0.05200
N517        N  0.07413064  0.36952596  0.56412867    -0.57700
N518        N  0.94599749  0.43809814  0.58434730    -0.03300
N519        N  0.91999729  0.42322353  0.61868811    -0.59000
N520        N  0.94622146  0.40728992  0.55030621    -0.05300
N521        N  0.92020943  0.37129190  0.56088497    -0.58000
N522        N  0.04864327  0.43652446  0.58693055    -0.03000
N523        N  0.07295404  0.42110002  0.62234766    -0.59100
Mn524      Mn  0.99834926  0.49395704  0.58801284     1.18400
C525        C  0.08856961  0.37942019  0.60749468     0.99200
C526        C  0.90384247  0.38181099  0.60334564     0.99900
N527        N  0.05576997  0.58556892  0.94823313    -0.05300
N528        N  0.08316462  0.62069560  0.93834961    -0.61600
N529        N  0.95283775  0.55748671  0.91067642    -0.04100
N530        N  0.92855038  0.57299408  0.87520565    -0.62300
N531        N  0.95215641  0.58800919  0.94495614    -0.04800
N532        N  0.92698741  0.62432902  0.93354868    -0.61800
N533        N  0.05582202  0.55481818  0.91415058    -0.03700
N534        N  0.08292729  0.56893168  0.88039574    -0.62500
Mn535      Mn  0.00213790  0.58531352  0.50244641     1.10700
C536        C  0.10023989  0.60964677  0.89628530     1.00400
C537        C  0.91241596  0.61449656  0.89013757     1.00500
N538        N  0.94842234  0.41146510  0.93887994    -0.04800
N539        N  0.92137537  0.37719033  0.92539580    -0.60200
N540        N  0.05374411  0.44197732  0.90977069    -0.04100
N541        N  0.08085011  0.42951785  0.87523757    -0.56900
N542        N  0.05220080  0.40877579  0.94097147    -0.05400
N543        N  0.07810939  0.37336424  0.92793820    -0.59700
N544        N  0.94958504  0.44424888  0.90722152    -0.04400
N545        N  0.92320296  0.43243509  0.87166161    -0.56900
Mn546      Mn  0.99909671  0.40842642  0.49562137     1.20200
Mn547      Mn  0.00296659  0.49955987  0.90999707     1.10100
Cl548      Cl  0.00060384  0.49686116  0.49902475    -0.84900
C549        C  0.90545137  0.39057982  0.88356505     0.97500
C550        C  0.09624141  0.38672132  0.88698774     0.97200
C551        C  0.26234339  0.25847829  0.70320662     0.46500
H552        H  0.26592329  0.25835692  0.66502076    -0.02500
C553        C  0.25498045  0.25406082  0.79214862     0.46600
H554        H  0.25236682  0.25251725  0.83072799    -0.02500
C555        C  0.29244847  0.29394211  0.72930796    -0.16200
C556        C  0.21345168  0.26975911  0.71952250    -0.15900
C557        C  0.27719639  0.21113320  0.72222475    -0.16300
C558        C  0.28835094  0.29137586  0.77610649    -0.16300
C559        C  0.20977658  0.26861602  0.76764670    -0.15800
C560        C  0.27413976  0.20872633  0.76994259    -0.16200
C561        C  0.73888027  0.25106625  0.70469773     0.46500
H562        H  0.73506213  0.24696813  0.66664512    -0.02500
C563        C  0.74685141  0.25949516  0.79358447     0.46600
H564        H  0.75080513  0.26356518  0.83160813    -0.02500
C565        C  0.70750248  0.28813666  0.72569951    -0.16200
C566        C  0.72522993  0.20662351  0.73100976    -0.15900
C567        C  0.78722589  0.26726098  0.71962704    -0.16300
C568        C  0.71176946  0.29266666  0.77262988    -0.16300
C569        C  0.72900400  0.21101209  0.77868296    -0.15800
C570        C  0.79125060  0.27133113  0.76731686    -0.16200
C571        C  0.25477060  0.73411423  0.70604418     0.46500
H572        H  0.25194459  0.72762769  0.66823384    -0.02500
C573        C  0.26017164  0.74727903  0.79460519     0.46600
H574        H  0.26276587  0.75359581  0.83245938    -0.02500
C575        C  0.29069269  0.70389945  0.72988395    -0.16200
C576        C  0.27003631  0.78402099  0.71860061    -0.15900
C577        C  0.21026221  0.72173096  0.73171155    -0.16300
C578        C  0.29374153  0.71093749  0.77655700    -0.16300
C579        C  0.27276042  0.79083160  0.76610384    -0.15800
C580        C  0.21303886  0.72765361  0.77932039    -0.16200
C581        C  0.74691831  0.73753925  0.70674130     0.46500
H582        H  0.74775409  0.73207008  0.66868772    -0.02500
C583        C  0.74658115  0.74960423  0.79553030     0.46600
H584        H  0.74612526  0.75602941  0.83340946    -0.02500
C585        C  0.71286109  0.70605502  0.73200954    -0.16200
C586        C  0.79316254  0.72580551  0.72965744    -0.15900
C587        C  0.73155407  0.78692331  0.72081740    -0.16300
C588        C  0.71262593  0.71237469  0.77901897    -0.16300
C589        C  0.79317687  0.73117637  0.77742126    -0.15800
C590        C  0.73171531  0.79327277  0.76840024    -0.16200
C591        C  0.12985879  0.68093182  0.63632625     0.24700
C592        C  0.12367608  0.63337606  0.64631559    -0.23400
C593        C  0.14384607  0.61572394  0.68694571     0.19600
C594        C  0.17001441  0.64456949  0.71624879     0.24600
C595        C  0.17619072  0.69208951  0.70602880    -0.23400
C596        C  0.15571984  0.70969779  0.66576432     0.19500
F597        F  0.16184776  0.75493245  0.65422528    -0.13300
F598        F  0.11116566  0.69992955  0.59777199    -0.15700
F599        F  0.19249816  0.62491215  0.75231324    -0.15700
F600        F  0.14013090  0.56995556  0.69735227    -0.13300
C601        C  0.20155783  0.67674609  0.85081271     0.24700
C602        C  0.18260554  0.70209695  0.81327866    -0.23400
C603        C  0.13484767  0.69897091  0.80638498     0.19600
C604        C  0.10811532  0.66842655  0.83292319     0.24600
C605        C  0.12806261  0.64181588  0.86823637    -0.23400
C606        C  0.17457939  0.64722037  0.87770656     0.19500
F607        F  0.19438891  0.62270347  0.91243606    -0.13300
F608        F  0.24649449  0.67872181  0.86152992    -0.15700
F609        F  0.06259730  0.66492350  0.82425838    -0.15700
F610        F  0.11398010  0.72516153  0.77365588    -0.13300
C611        C  0.15599648  0.27966418  0.83537784     0.24700
C612        C  0.17661774  0.29780681  0.79538536    -0.23400
C613        C  0.17013077  0.34545814  0.78596222     0.19600
C614        C  0.14425683  0.37390259  0.81547830     0.24600
C615        C  0.12408756  0.35595747  0.85580254    -0.23400
C616        C  0.12998522  0.30818804  0.86510207     0.19500
F617        F  0.11053837  0.28877728  0.90296590    -0.13300
F618        F  0.16116185  0.23405808  0.84581051    -0.15700
F619        F  0.14005154  0.41958194  0.80486709    -0.15700
F620        F  0.19013628  0.36553329  0.74893412    -0.13300
C621        C  0.10193240  0.32066353  0.67037967     0.24700
C622        C  0.11851626  0.34870892  0.63448590    -0.23400
C623        C  0.16438167  0.34613862  0.62248448     0.19600
C624        C  0.19449604  0.31869785  0.64766610     0.24600
C625        C  0.17955706  0.29274385  0.68676555    -0.23400
C626        C  0.13197811  0.29207913  0.69560167     0.19500
F627        F  0.11442839  0.26379481  0.72852385    -0.13300
F628        F  0.05668533  0.32066677  0.68071477    -0.15700
F629        F  0.23833954  0.31998495  0.63319695    -0.15700
F630        F  0.18062816  0.37166426  0.58666307    -0.13300
C631        C  0.80004141  0.32050919  0.65051382     0.24700
C632        C  0.81842604  0.29174369  0.68571758    -0.23400
C633        C  0.86650020  0.29062815  0.69066942     0.19600
C634        C  0.89458162  0.31979391  0.66387035     0.24600
C635        C  0.87528002  0.34996684  0.63104178    -0.23400
C636        C  0.82810696  0.34918870  0.62396170     0.19500
F637        F  0.80882208  0.37749264  0.59193084    -0.13300
F638        F  0.75461143  0.32325186  0.64244293    -0.15700
F639        F  0.94059093  0.31880068  0.67015632    -0.15700
F640        F  0.88628260  0.26179760  0.72186495    -0.13300
C641        C  0.87036376  0.31276173  0.86341924     0.24700
C642        C  0.87797509  0.35980873  0.85215827    -0.24100
C643        C  0.85939325  0.37668893  0.81049335     0.19600
C644        C  0.83282074  0.34783132  0.78170787     0.24600
C645        C  0.82580471  0.30059624  0.79270535    -0.23400
C646        C  0.84505156  0.28361600  0.83388516     0.19500
F647        F  0.83778332  0.23884817  0.84650989    -0.13300
F648        F  0.88686041  0.29471532  0.90343357    -0.15700
F649        F  0.81079021  0.36745313  0.74538588    -0.15700
F650        F  0.86498182  0.42185192  0.79849468    -0.13300
C651        C  0.80973498  0.68190037  0.84908375     0.24700
C652        C  0.82601090  0.70570113  0.80941370    -0.23400
C653        C  0.87312541  0.70131277  0.79905874     0.19600
C654        C  0.90124074  0.67073471  0.82431249     0.24600
C655        C  0.88370639  0.64620615  0.86230731    -0.23400
C656        C  0.83836408  0.65335649  0.87520535     0.19500
F657        F  0.82107648  0.63113744  0.91264835    -0.13300
F658        F  0.76568727  0.68419682  0.86278453    -0.15700
F659        F  0.94574363  0.66561839  0.81206733    -0.15700
F660        F  0.89212048  0.72647159  0.76447534    -0.13300
C661        C  0.84669423  0.71372408  0.66263857     0.24700
C662        C  0.82557903  0.69585828  0.70238849    -0.23400
C663        C  0.83030874  0.64804059  0.71168027     0.19600
C664        C  0.85564943  0.61903848  0.68206571     0.24600
C665        C  0.87687840  0.63691152  0.64215012    -0.23400
C666        C  0.87224489  0.68483881  0.63306925     0.19500
F667        F  0.89245753  0.70407669  0.59552349    -0.13300
F668        F  0.84211173  0.75938677  0.65213062    -0.15700
F669        F  0.85787564  0.57300725  0.69173065    -0.15700
F670        F  0.80743249  0.62852622  0.74746447    -0.13300
C671        C  0.64711382  0.17314918  0.87485053     0.24700
C672        C  0.64365960  0.12550297  0.86681718    -0.23400
C673        C  0.67197774  0.10467179  0.83341612     0.19600
C674        C  0.70200715  0.13182458  0.80687004     0.24600
C675        C  0.70338655  0.18057495  0.81242847    -0.23400
C676        C  0.67651176  0.20038348  0.84835105     0.19500
F677        F  0.67680987  0.24636973  0.85775390    -0.13300
F678        F  0.62103379  0.19371771  0.90796292    -0.15700
F679        F  0.72947771  0.11044301  0.77554051    -0.15700
F680        F  0.67056261  0.05800178  0.82658064    -0.13300
C681        C  0.68430264  0.12269046  0.63746440     0.24700
C682        C  0.63706680  0.11852693  0.64659152    -0.23400
C683        C  0.61959992  0.14093176  0.68630303     0.19600
C684        C  0.64828642  0.16770738  0.71521103     0.24600
C685        C  0.69551257  0.17200216  0.70575227    -0.23400
C686        C  0.71294224  0.14901500  0.66660255     0.19500
F687        F  0.75792433  0.15304998  0.65584544    -0.13300
F688        F  0.70312986  0.10137287  0.60008478    -0.15700
F689        F  0.62895517  0.19254456  0.75006752    -0.15700
F690        F  0.57425339  0.13893458  0.69604371    -0.13300
C691        C  0.36287121  0.16554372  0.63269458     0.24700
C692        C  0.36030701  0.11772020  0.63876859    -0.23400
C693        C  0.32939548  0.09952970  0.67116479     0.19600
C694        C  0.30128425  0.12937077  0.69736031     0.24600
C695        C  0.30408142  0.17800085  0.69186838    -0.23400
C696        C  0.33521033  0.19527320  0.65843971     0.19500
F697        F  0.34083369  0.24114429  0.65095773    -0.13300
F698        F  0.39298497  0.18376950  0.60199171    -0.15700
F699        F  0.27131540  0.11070415  0.72785412    -0.15700
F700        F  0.32641148  0.05291875  0.67729678    -0.13300
C701        C  0.35032686  0.17124151  0.79036137     0.24700
C702        C  0.30303296  0.17649077  0.79892114    -0.23400
C703        C  0.28475592  0.15466961  0.83825307     0.19600
C704        C  0.31286630  0.12841348  0.86799731     0.24600
C705        C  0.36027378  0.12407383  0.85954291    -0.23400
C706        C  0.37836327  0.14596015  0.82029518     0.19500
F707        F  0.42393940  0.14467675  0.81155904    -0.13300
F708        F  0.37096672  0.19441684  0.75547235    -0.15700
F709        F  0.29347202  0.10708946  0.90485820    -0.15700
F710        F  0.23950676  0.15862421  0.84783042    -0.13300
C711        C  0.64303078  0.82272517  0.62920258     0.24700
C712        C  0.64195568  0.87086383  0.63452369    -0.23400
C713        C  0.67294521  0.89229920  0.66523198     0.19600
C714        C  0.70384494  0.86550142  0.69128723     0.24600
C715        C  0.70372954  0.81652517  0.68783734    -0.23400
C716        C  0.67344134  0.79586348  0.65510400     0.19500
F717        F  0.67140849  0.74944256  0.64843688    -0.13300
F718        F  0.61404612  0.80142371  0.59896289    -0.15700
F719        F  0.73376736  0.88749613  0.71998659    -0.15700
F720        F  0.67318762  0.93923473  0.67003812    -0.13300
C721        C  0.69251676  0.88093135  0.85943259     0.24700
C722        C  0.64471967  0.88191499  0.85240177    -0.23400
C723        C  0.62647874  0.85681595  0.81464817     0.19600
C724        C  0.65472476  0.82965672  0.78621314     0.24600
C725        C  0.70242791  0.82802201  0.79361606    -0.23400
C726        C  0.72092319  0.85427221  0.83038099     0.19500
F727        F  0.76660543  0.85319012  0.83882585    -0.13300
F728        F  0.71195428  0.90578576  0.89440674    -0.15700
F729        F  0.63463829  0.80185724  0.75399058    -0.15700
F730        F  0.58072898  0.85639241  0.80657922    -0.13300
C731        C  0.28544463  0.85007863  0.82861004     0.24700
C732        C  0.30253318  0.82637778  0.78976850    -0.23400
C733        C  0.34971724  0.83032906  0.77983925     0.19600
C734        C  0.37877299  0.85696482  0.80837315     0.24600
C735        C  0.36182429  0.87910737  0.84840649    -0.23400
C736        C  0.31453488  0.87597465  0.85757674     0.19500
F737        F  0.29614411  0.89766441  0.89496514    -0.13300
F738        F  0.24045332  0.84667106  0.83954500    -0.15700
F739        F  0.42401301  0.85881899  0.79809731    -0.15700
F740        F  0.36878283  0.80519048  0.74507951    -0.13300
C741        C  0.32311754  0.79403644  0.64900265     0.24700
C742        C  0.29488529  0.81406134  0.68374177    -0.23400
C743        C  0.29449951  0.86299220  0.68754403     0.19600
C744        C  0.32446333  0.89031501  0.66099274     0.24600
C745        C  0.35443633  0.86946113  0.62905961    -0.23400
C746        C  0.35225902  0.82148196  0.62222229     0.19500
F747        F  0.37942543  0.80083315  0.59008758    -0.13300
F748        F  0.32472814  0.74768205  0.64148495    -0.15700
F749        F  0.32436022  0.93715401  0.66663517    -0.15700
F750        F  0.26556341  0.88436803  0.71749722    -0.13300
C751        C  0.38019930  0.68246923  0.86884043     0.24700
C752        C  0.37928212  0.63378685  0.86747443    -0.23400
C753        C  0.35053751  0.61052495  0.83602870     0.19600
C754        C  0.32291802  0.63569819  0.80624814     0.24600
C755        C  0.32413148  0.68446420  0.80717057    -0.23400
C756        C  0.35243438  0.70763104  0.83908920     0.19500
F757        F  0.35264777  0.75451420  0.84236951    -0.13300
F758        F  0.40594949  0.70573222  0.90061378    -0.15700
F759        F  0.29311120  0.61241722  0.77843713    -0.15700
F760        F  0.34848821  0.56339272  0.83471594    -0.13300
C761        C  0.36785379  0.67748986  0.70544565     0.24700
C762        C  0.32015839  0.67215336  0.70397255    -0.23400
C763        C  0.30037413  0.63769211  0.67613902     0.19600
C764        C  0.32762794  0.60925158  0.64923382     0.24600
C765        C  0.37518699  0.61611487  0.64864916    -0.23400
C766        C  0.39532151  0.64965722  0.67766672     0.19500
F767        F  0.44127384  0.65653300  0.67798349    -0.13300
F768        F  0.38756802  0.71136451  0.73158226    -0.15700
F769        F  0.30689959  0.57715910  0.62158068    -0.15700
F770        F  0.25454410  0.63192667  0.67415484    -0.13300
C771        C  0.65992295  0.60993182  0.84044310     0.24700
C772        C  0.63157212  0.63247487  0.87263265    -0.23400
C773        C  0.63072779  0.68119059  0.87457123     0.19600
C774        C  0.65766319  0.70702736  0.84463628     0.24600
C775        C  0.68473403  0.68471094  0.81128115    -0.23400
C776        C  0.68629562  0.63589080  0.80989257     0.19500
F777        F  0.71457833  0.61334835  0.78014238    -0.13300
F778        F  0.66200582  0.56284202  0.83842149    -0.15700
F779        F  0.65727797  0.75386339  0.84865440    -0.15700
F780        F  0.60520460  0.70395335  0.90667460    -0.13300
C781        C  0.67419317  0.61496524  0.64734348     0.24700
C782        C  0.62652956  0.61718058  0.65192796    -0.23400
C783        C  0.60692267  0.64727735  0.68465092     0.19600
C784        C  0.63499479  0.67526961  0.71224563     0.24600
C785        C  0.68278866  0.67361960  0.70675147    -0.23400
C786        C  0.70187152  0.64346138  0.67393808     0.19500
F787        F  0.74734525  0.64256189  0.66598348    -0.13300
F788        F  0.69422277  0.58777448  0.61459753    -0.15700
F789        F  0.61542146  0.70605799  0.74188673    -0.15700
F790        F  0.56079764  0.65044498  0.68896266    -0.13300
C791        C  0.67759124  0.38194221  0.86161623     0.24700
C792        C  0.62968100  0.37784876  0.86079205    -0.23400
C793        C  0.60872166  0.34713424  0.82932442     0.19600
C794        C  0.63539400  0.32017198  0.79973388     0.24600
C795        C  0.68333552  0.32356141  0.80138857    -0.23400
C796        C  0.70414995  0.35454914  0.83251691     0.19500
F797        F  0.75025280  0.35800776  0.83531359    -0.13300
F798        F  0.69904152  0.41068630  0.89218580    -0.15700
F799        F  0.61449602  0.28895234  0.77132234    -0.15700
F800        F  0.56251505  0.34270282  0.82766026    -0.13300
C801        C  0.64683389  0.29447318  0.66595779     0.24700
C802        C  0.67645488  0.31627677  0.69749234    -0.23400
C803        C  0.67712700  0.36497445  0.70114632     0.19600
C804        C  0.64785357  0.39133787  0.67399481     0.24600
C805        C  0.61818820  0.36924034  0.64259556    -0.23400
C806        C  0.61735235  0.32066761  0.63921081     0.19500
F807        F  0.59019773  0.29847095  0.60788988    -0.13300
F808        F  0.64694999  0.24787237  0.65996601    -0.15700
F809        F  0.64928642  0.43839207  0.67751307    -0.15700
F810        F  0.70773743  0.38704927  0.72906241    -0.13300
C811        C  0.35551174  0.30280413  0.82637641     0.24700
C812        C  0.31521936  0.32057662  0.80763269    -0.23400
C813        C  0.30438713  0.36758570  0.81392861     0.19600
C814        C  0.33362878  0.39630598  0.83932351     0.24600
C815        C  0.37431526  0.37813823  0.85797065    -0.23400
C816        C  0.38546607  0.33135585  0.85015900     0.19500
F817        F  0.42484681  0.31243762  0.86641651    -0.13300
F818        F  0.36667695  0.25776587  0.82121214    -0.15700
F819        F  0.32205743  0.44156554  0.84566747    -0.15700
F820        F  0.26566940  0.38566311  0.79564909    -0.13300
C821        C  0.30465904  0.36765277  0.68667322     0.24700
C822        C  0.32281602  0.32727641  0.70604264    -0.23400
C823        C  0.36952326  0.31771210  0.70098039     0.19600
C824        C  0.39573187  0.34354298  0.67008645     0.24600
C825        C  0.37555844  0.38003609  0.64514774    -0.23400
C826        C  0.33051795  0.39361623  0.65585099     0.19500
F827        F  0.31036238  0.43030818  0.63468997    -0.13300
F828        F  0.26131392  0.38111906  0.69620829    -0.15700
F829        F  0.44015223  0.33173406  0.66338315    -0.15700
F830        F  0.38892137  0.28143201  0.72338552    -0.13300
loop_ 
_geom_bond_atom_site_label_1 
_geom_bond_atom_site_label_2 
_geom_bond_distance 
_geom_bond_site_symmetry_2 
_ccdc_geom_bond_type 
N1            N2   1.314       .  A
N1            N7   1.311       .  A
N1         Mn445   2.164       .  S
N2            C9   1.348       .  A
N3            N5   1.313       .  A
N3            N4   1.318       .  A
N3         Mn434   2.187       .  S
N4           C10   1.352       .  A
N5            N6   1.314       .  A
N5          Mn30   2.170       .  S
N6           C10   1.349       .  A
N7            N8   1.314       .  A
N7          Mn19   2.164   1_554  S
N8            C9   1.350       .  A
C9          C390   1.452       .  S
C10         C377   1.463       .  S
N11          N17   1.310       .  A
N11          N12   1.315       .  A
N11        Mn456   2.159       .  S
N12          C20   1.350       .  A
N13          N14   1.321       .  A
N13          N15   1.311       .  A
N13         Mn19   2.196   1_554  S
N14          C21   1.356       .  A
N15          N16   1.315       .  A
N15         Mn41   2.167       .  S
N16          C21   1.348       .  A
N17          N18   1.311       .  A
N17        Mn434   2.168       .  S
N18          C20   1.350       .  A
Mn19        N418   2.189       .  S
Mn19        N432   2.169       .  S
Mn19        Cl43   2.531   1_556  S
C20         C400   1.459       .  S
C21         C410   1.473       .  S
N22          N23   1.317       .  A
N22          N28   1.313       .  A
N22         Mn30   2.180       .  S
N23          C31   1.350       .  A
N24          N26   1.311       .  A
N24          N25   1.317       .  A
N24        Mn457   2.169       .  S
N25          C32   1.351       .  A
N26          N27   1.312       .  A
N26        Mn445   2.165       .  S
N27          C32   1.348       .  A
N28          N29   1.316       .  A
N28         Mn42   2.184       .  S
N29          C31   1.351       .  A
Mn30        N416   2.164       .  S
Mn30        N441   2.164       .  S
Mn30       Cl458   2.511       .  S
C31         C357   1.463       .  S
C32         C367   1.455       .  S
N33          N34   1.310       .  A
N33          N39   1.311       .  A
N33         Mn41   2.150       .  S
N34          C44   1.346       .  A
N35          N36   1.316       .  A
N35          N37   1.313       .  A
N35         Mn42   2.174       .  S
N36          C45   1.351       .  A
N37          N38   1.312       .  A
N37        Mn456   2.161       .  S
N38          C45   1.347       .  A
N39          N40   1.315       .  A
N39        Mn457   2.168       .  S
N40          C44   1.351       .  A
Mn41        N426   2.159   1_554  S
Mn41        N452   2.162   1_554  S
Mn41        Cl43   2.514       .  S
Mn42        N439   2.168       .  S
Mn42        N454   2.168       .  S
Mn42       Cl458   2.536       .  S
Cl43       Mn445   2.512       .  S
Cl43       Mn457   2.536       .  S
C44         C350   1.452       .  S
C45         C337   1.453       .  S
N46          N47   1.322       .  A
N46          N52   1.321       .  A
N46         Mn75   2.207   1_554  S
N47          C54   1.349       .  A
N48          N50   1.319       .  A
N48          N49   1.322       .  A
N48         Mn64   2.209   1_545  S
N49          C55   1.351       .  A
N50          N51   1.321       .  A
N50         Mn75   2.212   1_544  S
N51          C55   1.351       .  A
N52          N53   1.326       .  A
N52         Mn64   2.234       .  S
N53          C54   1.356       .  A
C54         C330   1.481       .  S
C55         C277   1.471       .  S
N56          N62   1.318       .  A
N56          N57   1.322       .  A
N56         Mn86   2.218   1_544  S
N57          C65   1.354       .  A
N58          N59   1.325       .  A
N58          N60   1.320       .  A
N58         Mn64   2.226       .  S
N59          C66   1.354       .  A
N60          N61   1.321       .  A
N60         Mn86   2.206   1_554  S
N61          C66   1.349       .  A
N62          N63   1.326       .  A
N62         Mn64   2.229   1_545  S
N63          C65   1.358       .  A
Mn64        Cl88   2.572   1_554  S
C65         C267   1.500       .  S
C66         C297   1.477       .  S
N67          N68   1.324       .  A
N67          N73   1.319       .  A
N67        Mn490   2.210   1_545  S
N68          C76   1.354       .  A
N69          N71   1.319       .  A
N69          N70   1.325       .  A
N69         Mn87   2.225   1_565  S
N70          C77   1.357       .  A
N71          N72   1.321       .  A
N71        Mn490   2.213       .  S
N72          C77   1.353       .  A
N73          N74   1.323       .  A
N73         Mn87   2.228       .  S
N74          C76   1.357       .  A
Mn75        N482   2.210   1_565  S
Mn75        N486   2.214       .  S
Mn75        Cl88   2.551       .  S
C76         C290   1.498       .  S
C77         C320   1.496       .  S
N78          N79   1.325       .  A
N78          N84   1.319       .  A
N78        Mn501   2.224       .  S
N79          C89   1.356       .  A
N80          N81   1.324       .  A
N80          N82   1.320       .  A
N80         Mn87   2.223       .  S
N81          C90   1.354       .  A
N82          N83   1.321       .  A
N82        Mn501   2.202   1_545  S
N83          C90   1.349       .  A
N84          N85   1.323       .  A
N84         Mn87   2.222   1_565  S
N85          C89   1.355       .  A
Mn86        N493   2.224       .  S
Mn86        N497   2.201   1_565  S
Mn86        Cl88   2.551       .  S
Mn87       Cl503   2.567   1_545  S
Cl88       Mn502   2.566   1_565  S
C89         C307   1.497       .  S
C90         C257   1.475       .  S
N91          N92   1.323       .  A
N91          N97   1.319       .  A
N91        Mn120   2.221   1_655  S
N92          C99   1.355       .  A
N93          N95   1.318       .  A
N93          N94   1.326       .  A
N93        Mn109   2.231   1_455  S
N94         C100   1.358       .  A
N95          N96   1.321       .  A
N95        Mn120   2.211       .  S
N96         C100   1.353       .  A
N97          N98   1.324       .  A
N97        Mn109   2.224       .  S
N98          C99   1.356       .  A
C99         C250   1.500       .  S
C100        C177   1.499       .  S
N101        N107   1.320       .  A
N101        N102   1.321       .  A
N101       Mn131   2.205   1_454  S
N102        C110   1.349       .  A
N103        N104   1.324       .  A
N103        N105   1.320       .  A
N103       Mn109   2.221       .  S
N104        C111   1.354       .  A
N105        N106   1.323       .  A
N105       Mn131   2.214   1_554  S
N106        C111   1.351       .  A
N107        N108   1.323       .  A
N107       Mn109   2.215   1_455  S
N108        C110   1.352       .  A
Mn109      Cl133   2.573   1_654  S
C110        C207   1.471       .  S
C111        C220   1.479       .  S
N112        N113   1.323       .  A
N112        N118   1.320       .  A
N112       Mn535   2.217       .  S
N113        C121   1.351       .  A
N114        N116   1.320       .  A
N114        N115   1.325       .  A
N114       Mn132   2.221   1_655  S
N115        C122   1.354       .  A
N116        N117   1.322       .  A
N116       Mn535   2.216   1_655  S
N117        C122   1.352       .  A
N118        N119   1.324       .  A
N118       Mn132   2.220       .  S
N119        C121   1.354       .  A
Mn120       N527   2.216   1_554  S
Mn120       N531   2.215   1_454  S
Mn120      Cl133   2.548   1_554  S
C121        C190   1.479       .  S
C122        C240   1.480       .  S
N123        N124   1.320       .  A
N123        N129   1.319       .  A
N123       Mn546   2.207       .  S
N124        C134   1.352       .  A
N125        N126   1.324       .  A
N125        N127   1.318       .  A
N125       Mn132   2.227       .  S
N126        C135   1.357       .  A
N127        N128   1.324       .  A
N127       Mn546   2.219   1_455  S
N128        C135   1.355       .  A
N129        N130   1.325       .  A
N129       Mn132   2.230   1_655  S
N130        C134   1.358       .  A
Mn131       N538   2.206       .  S
Mn131       N542   2.220   1_655  S
Mn131      Cl133   2.548   1_655  S
Mn132      Cl548   2.574       .  S
Cl133      Mn547   2.574       .  S
C134        C227   1.496       .  S
C135        C200   1.502       .  S
C136        H137   1.086       .  S
C136        C142   1.537       .  S
C136        C141   1.543       .  S
C136        C140   1.542       .  S
C138        H139   1.104       .  S
C138        C144   1.558       .  S
C138        C143   1.526       .  S
C138        C145   1.558       .  S
C140        C143   1.359       .  D
C140        C407   1.474       .  S
C141        C144   1.394       .  D
C141        C210   1.522       .  S
C142        C145   1.383       .  D
C142        C280   1.514       .  S
C143        C397   1.462       .  S
C144        C197   1.513       .  S
C145        C287   1.511       .  S
C146        H147   1.110       .  S
C146        C152   1.547       .  S
C146        C151   1.545       .  S
C146        C150   1.531       .  S
C148        H149   1.109       .  S
C148        C154   1.548       .  S
C148        C153   1.529       .  S
C148        C155   1.545       .  S
C150        C153   1.366       .  D
C150        C387   1.466       .  S
C151        C154   1.386       .  D
C151        C270   1.505       .  S
C152        C155   1.386       .  D
C152        C217   1.517       .  S
C153        C380   1.472       .  S
C154        C260   1.515       .  S
C155        C230   1.502       .  S
C156        H157   1.110       .  S
C156        C162   1.543       .  S
C156        C161   1.545       .  S
C156        C160   1.529       .  S
C158        H159   1.110       .  S
C158        C164   1.548       .  S
C158        C163   1.526       .  S
C158        C165   1.551       .  S
C160        C163   1.365       .  D
C160        C347   1.462       .  S
C161        C164   1.387       .  D
C161        C327   1.518       .  S
C162        C165   1.387       .  D
C162        C180   1.503       .  S
C163        C340   1.469       .  S
C164        C317   1.502       .  S
C165        C187   1.519       .  S
C166        H167   1.110       .  S
C166        C172   1.544       .  S
C166        C171   1.543       .  S
C166        C170   1.536       .  S
C168        H169   1.108       .  S
C168        C174   1.554       .  S
C168        C173   1.533       .  S
C168        C175   1.547       .  S
C170        C173   1.370       .  D
C170        C370   1.473       .  S
C171        C174   1.387       .  D
C171        C247   1.503       .  S
C172        C175   1.385       .  D
C172        C300   1.517       .  S
C173        C360   1.476       .  S
C174        C237   1.524       .  S
C175        C310   1.504       .  S
C176        C177   1.412       .  A
C176        C181   1.403       .  A
C176        F183   1.357       .  S
C177        C178   1.410       .  A
C178        C179   1.407       .  A
C178        F185   1.358       .  S
C179        C180   1.413       .  A
C179        F184   1.357       .  S
C180        C181   1.404       .  A
C181        F182   1.358       .  S
C186        C187   1.422       .  A
C186        C191   1.400       .  A
C186        F193   1.350       .  S
C187        C188   1.413       .  A
C188        C189   1.408       .  A
C188        F195   1.357       .  S
C189        C190   1.405       .  A
C189        F194   1.357       .  S
C190        C191   1.395       .  A
C191        F192   1.359       .  S
C196        C197   1.408       .  A
C196        C201   1.410       .  A
C196        F203   1.357       .  S
C197        C198   1.413       .  A
C198        C199   1.402       .  A
C198        F205   1.353       .  S
C199        C200   1.408       .  A
C199        F204   1.358       .  S
C200        C201   1.413       .  A
C201        F202   1.357       .  S
C206        C207   1.405       .  A
C206        C211   1.409       .  A
C206        F213   1.357       .  S
C207        C208   1.389       .  A
C208        C209   1.391       .  A
C208        F215   1.359       .  S
C209        C210   1.426       .  A
C209        F214   1.350       .  S
C210        C211   1.415       .  A
C211        F212   1.357       .  S
C216        C217   1.420       .  A
C216        C221   1.398       .  A
C216        F223   1.351       .  S
C217        C218   1.413       .  A
C218        C219   1.410       .  A
C218        F225   1.357       .  S
C219        C220   1.407       .  A
C219        F224   1.358       .  S
C220        C221   1.394       .  A
C221        F222   1.358       .  S
C226        C227   1.412       .  A
C226        C231   1.402       .  A
C226        F233   1.357       .  S
C227        C228   1.408       .  A
C228        C229   1.404       .  A
C228        F235   1.357       .  S
C229        C230   1.413       .  A
C229        F234   1.356       .  S
C230        C231   1.405       .  A
C231        F232   1.358       .  S
C236        C237   1.422       .  A
C236        C241   1.397       .  A
C236        F243   1.350       .  S
C237        C238   1.417       .  A
C238        C239   1.410       .  A
C238        F245   1.357       .  S
C239        C240   1.406       .  A
C239        F244   1.358       .  S
C240        C241   1.393       .  A
C241        F242   1.358       .  S
C246        C247   1.405       .  A
C246        C251   1.406       .  A
C246        F253   1.358       .  S
C247        C248   1.411       .  A
C248        C249   1.405       .  A
C248        F255   1.357       .  S
C249        C250   1.410       .  A
C249        F254   1.358       .  S
C250        C251   1.413       .  A
C251        F252   1.357       .  S
C256        C257   1.394       .  A
C256        C261   1.397       .  A
C256        F263   1.359       .  S
C257        C258   1.406       .  A
C258        C259   1.407       .  A
C258        F265   1.357       .  S
C259        C260   1.412       .  A
C259        F264   1.357       .  S
C260        C261   1.421       .  A
C261        F262   1.350       .  S
C266        C267   1.412       .  A
C266        C271   1.404       .  A
C266        F273   1.357       .  S
C267        C268   1.410       .  A
C268        C269   1.408       .  A
C268        F275   1.358       .  S
C269        C270   1.414       .  A
C269        F274   1.357       .  S
C270        C271   1.404       .  A
C271        F272   1.358       .  S
C276        C277   1.391       .  A
C276        C281   1.392       .  A
C276        F283   1.359       .  S
C277        C278   1.406       .  A
C278        C279   1.408       .  A
C278        F285   1.357       .  S
C279        C280   1.413       .  A
C279        F284   1.357       .  S
C280        C281   1.421       .  A
C281        F282   1.349       .  S
C286        C287   1.414       .  A
C286        C291   1.398       .  A
C286        F293   1.355       .  S
C287        C288   1.408       .  A
C288        C289   1.411       .  A
C288        F295   1.358       .  S
C289        C290   1.414       .  A
C289        F294   1.357       .  S
C290        C291   1.405       .  A
C291        F292   1.358       .  S
C296        C297   1.394       .  A
C296        C301   1.398       .  A
C296        F303   1.358       .  S
C297        C298   1.406       .  A
C298        C299   1.408       .  A
C298        F305   1.358       .  S
C299        C300   1.413       .  A
C299        F304   1.357       .  S
C300        C301   1.421       .  A
C301        F302   1.350       .  S
C306        C307   1.412       .  A
C306        C311   1.408       .  A
C306        F313   1.357       .  S
C307        C308   1.408       .  A
C308        C309   1.402       .  A
C308        F315   1.357       .  S
C309        C310   1.412       .  A
C309        F314   1.356       .  S
C310        C311   1.406       .  A
C311        F312   1.358       .  S
C316        C317   1.403       .  A
C316        C321   1.402       .  A
C316        F323   1.358       .  S
C317        C318   1.415       .  A
C318        C319   1.405       .  A
C318        F325   1.356       .  S
C319        C320   1.408       .  A
C319        F324   1.358       .  S
C320        C321   1.412       .  A
C321        F322   1.357       .  S
C326        C327   1.421       .  A
C326        C331   1.400       .  A
C326        F333   1.352       .  S
C327        C328   1.413       .  A
C328        C329   1.409       .  A
C328        F335   1.357       .  S
C329        C330   1.407       .  A
C329        F334   1.357       .  S
C330        C331   1.396       .  A
C331        F332   1.358       .  S
C336        C337   1.402       .  A
C336        C341   1.388       .  A
C336        F343   1.358       .  S
C337        C338   1.403       .  A
C338        C339   1.386       .  A
C338        F345   1.358       .  S
C339        C340   1.404       .  A
C339        F344   1.357       .  S
C340        C341   1.402       .  A
C341        F342   1.352       .  S
C346        C347   1.404       .  A
C346        C351   1.389       .  A
C346        F353   1.357       .  S
C347        C348   1.397       .  A
C348        C349   1.381       .  A
C348        F355   1.351       .  S
C349        C350   1.405       .  A
C349        F354   1.359       .  S
C350        C351   1.403       .  A
C351        F352   1.358       .  S
C356        C357   1.404       .  A
C356        C361   1.394       .  A
C356        F363   1.358       .  S
C357        C358   1.403       .  A
C358        C359   1.390       .  A
C358        F365   1.358       .  S
C359        C360   1.403       .  A
C359        F364   1.353       .  S
C360        C361   1.407       .  A
C361        F362   1.357       .  S
C366        C367   1.401       .  A
C366        C371   1.380       .  A
C366        F373   1.359       .  S
C367        C368   1.403       .  A
C368        C369   1.395       .  A
C368        F375   1.358       .  S
C369        C370   1.409       .  A
C369        F374   1.357       .  S
C370        C371   1.400       .  A
C371        F372   1.350       .  S
C376        C377   1.406       .  A
C376        C381   1.389       .  A
C376        F383   1.358       .  S
C377        C378   1.403       .  A
C378        C379   1.392       .  A
C378        F385   1.358       .  S
C379        C380   1.406       .  A
C379        F384   1.357       .  S
C380        C381   1.400       .  A
C381        F382   1.354       .  S
C386        C387   1.400       .  A
C386        C391   1.383       .  A
C386        F393   1.351       .  S
C387        C388   1.405       .  A
C388        C389   1.389       .  A
C388        F395   1.358       .  S
C389        C390   1.403       .  A
C389        F394   1.358       .  S
C390        C391   1.401       .  A
C391        F392   1.358       .  S
C396        C397   1.394       .  A
C396        C401   1.380       .  A
C396        F403   1.345       .  S
C397        C398   1.401       .  A
C398        C399   1.393       .  A
C398        F405   1.354       .  S
C399        C400   1.407       .  A
C399        F404   1.358       .  S
C400        C401   1.403       .  A
C401        F402   1.358       .  S
C406        C407   1.398       .  A
C406        C411   1.391       .  A
C406        F413   1.355       .  S
C407        C408   1.402       .  A
C408        C409   1.396       .  A
C408        F415   1.356       .  S
C409        C410   1.407       .  A
C409        F414   1.357       .  S
C410        C411   1.409       .  A
C411        F412   1.358       .  S
N416        N417   1.313       .  A
N416        N422   1.311       .  A
N417        C424   1.348       .  A
N418        N420   1.313       .  A
N418        N419   1.318       .  A
N419        C425   1.353       .  A
N420        N421   1.314       .  A
N420       Mn445   2.170   1_556  S
N421        C425   1.349       .  A
N422        N423   1.314       .  A
N422       Mn434   2.163       .  S
N423        C424   1.349       .  A
C424        C805   1.451       .  S
C425        C792   1.463       .  S
N426        N432   1.311       .  A
N426        N427   1.315       .  A
N427        C435   1.349       .  A
N428        N429   1.320       .  A
N428        N430   1.311       .  A
N428       Mn434   2.194       .  S
N429        C436   1.355       .  A
N430        N431   1.315       .  A
N430       Mn456   2.167       .  S
N431        C436   1.349       .  A
N432        N433   1.311       .  A
N433        C435   1.350       .  A
Mn434      Cl458   2.531       .  S
C435        C815   1.460       .  S
C436        C825   1.472       .  S
N437        N438   1.317       .  A
N437        N443   1.313       .  A
N437       Mn445   2.179   1_556  S
N438        C446   1.350       .  A
N439        N441   1.311       .  A
N439        N440   1.317       .  A
N440        C447   1.351       .  A
N441        N442   1.311       .  A
N442        C447   1.348       .  A
N443        N444   1.316       .  A
N443       Mn457   2.184   1_556  S
N444        C446   1.351       .  A
C446        C772   1.464       .  S
C447        C782   1.455       .  S
N448        N449   1.310       .  A
N448        N454   1.311       .  A
N448       Mn456   2.150       .  S
N449        C459   1.346       .  A
N450        N451   1.316       .  A
N450        N452   1.313       .  A
N450       Mn457   2.174   1_556  S
N451        C460   1.351       .  A
N452        N453   1.312       .  A
N453        C460   1.347       .  A
N454        N455   1.315       .  A
N455        C459   1.351       .  A
Mn456      Cl458   2.513       .  S
C459        C765   1.452       .  S
C460        C752   1.453       .  S
N461        N462   1.322       .  A
N461        N467   1.321       .  A
N461       Mn490   2.207       .  S
N462        C469   1.349       .  A
N463        N465   1.319       .  A
N463        N464   1.322       .  A
N463       Mn479   2.209   1_545  S
N464        C470   1.351       .  A
N465        N466   1.321       .  A
N465       Mn490   2.211   1_545  S
N466        C470   1.351       .  A
N467        N468   1.326       .  A
N467       Mn479   2.234       .  S
N468        C469   1.355       .  A
C469        C745   1.481       .  S
C470        C692   1.471       .  S
N471        N477   1.319       .  A
N471        N472   1.322       .  A
N471       Mn501   2.219   1_545  S
N472        C480   1.354       .  A
N473        N474   1.325       .  A
N473        N475   1.320       .  A
N473       Mn479   2.225       .  S
N474        C481   1.354       .  A
N475        N476   1.321       .  A
N475       Mn501   2.206       .  S
N476        C481   1.349       .  A
N477        N478   1.326       .  A
N477       Mn479   2.229   1_545  S
N478        C480   1.358       .  A
Mn479      Cl503   2.573       .  S
C480        C682   1.500       .  S
C481        C712   1.477       .  S
N482        N483   1.324       .  A
N482        N488   1.318       .  A
N483        C491   1.354       .  A
N484        N486   1.319       .  A
N484        N485   1.326       .  A
N484       Mn502   2.225   1_565  S
N485        C492   1.357       .  A
N486        N487   1.321       .  A
N487        C492   1.353       .  A
N488        N489   1.322       .  A
N488       Mn502   2.226       .  S
N489        C491   1.356       .  A
Mn490      Cl503   2.551       .  S
C491        C705   1.497       .  S
C492        C735   1.496       .  S
N493        N494   1.325       .  A
N493        N499   1.319       .  A
N494        C504   1.355       .  A
N495        N496   1.324       .  A
N495        N497   1.320       .  A
N495       Mn502   2.222       .  S
N496        C505   1.353       .  A
N497        N498   1.321       .  A
N498        C505   1.349       .  A
N499        N500   1.323       .  A
N499       Mn502   2.222   1_565  S
N500        C504   1.355       .  A
Mn501      Cl503   2.551       .  S
C504        C722   1.497       .  S
C505        C672   1.474       .  S
N506        N507   1.324       .  A
N506        N512   1.319       .  A
N506       Mn535   2.222   1_655  S
N507        C514   1.355       .  A
N508        N510   1.318       .  A
N508        N509   1.326       .  A
N508       Mn524   2.230   1_455  S
N509        C515   1.358       .  A
N510        N511   1.321       .  A
N510       Mn535   2.210       .  S
N511        C515   1.353       .  A
N512        N513   1.324       .  A
N512       Mn524   2.224       .  S
N513        C514   1.356       .  A
C514        C665   1.500       .  S
C515        C592   1.498       .  S
N516        N522   1.320       .  A
N516        N517   1.320       .  A
N516       Mn546   2.204   1_455  S
N517        C525   1.349       .  A
N518        N519   1.324       .  A
N518        N520   1.320       .  A
N518       Mn524   2.221       .  S
N519        C526   1.354       .  A
N520        N521   1.323       .  A
N520       Mn546   2.214       .  S
N521        C526   1.351       .  A
N522        N523   1.323       .  A
N522       Mn524   2.214   1_455  S
N523        C525   1.352       .  A
Mn524      Cl548   2.573   1_655  S
C525        C622   1.471       .  S
C526        C635   1.480       .  S
N527        N528   1.322       .  A
N527        N533   1.320       .  A
N528        C536   1.351       .  A
N529        N531   1.320       .  A
N529        N530   1.325       .  A
N529       Mn547   2.222   1_655  S
N530        C537   1.354       .  A
N531        N532   1.322       .  A
N532        C537   1.351       .  A
N533        N534   1.324       .  A
N533       Mn547   2.219       .  S
N534        C536   1.353       .  A
Mn535      Cl548   2.548       .  S
C536        C605   1.479       .  S
C537        C655   1.480       .  S
N538        N539   1.320       .  A
N538        N544   1.319       .  A
N539        C549   1.352       .  A
N540        N541   1.324       .  A
N540        N542   1.318       .  A
N540       Mn547   2.227       .  S
N541        C550   1.357       .  A
N542        N543   1.324       .  A
N543        C550   1.355       .  A
N544        N545   1.325       .  A
N544       Mn547   2.230   1_655  S
N545        C549   1.358       .  A
Mn546      Cl548   2.548   1_655  S
C549        C642   1.496       .  S
C550        C615   1.502       .  S
C551        H552   1.108       .  S
C551        C557   1.535       .  S
C551        C556   1.541       .  S
C551        C555   1.540       .  S
C553        H554   1.118       .  S
C553        C559   1.557       .  S
C553        C558   1.526       .  S
C553        C560   1.556       .  S
C555        C558   1.360       .  D
C555        C822   1.473       .  S
C556        C559   1.395       .  D
C556        C625   1.523       .  S
C557        C560   1.383       .  D
C557        C695   1.514       .  S
C558        C812   1.462       .  S
C559        C612   1.512       .  S
C560        C702   1.511       .  S
C561        H562   1.110       .  S
C561        C567   1.548       .  S
C561        C566   1.545       .  S
C561        C565   1.532       .  S
C563        H564   1.109       .  S
C563        C569   1.548       .  S
C563        C568   1.529       .  S
C563        C570   1.545       .  S
C565        C568   1.366       .  D
C565        C802   1.466       .  S
C566        C569   1.386       .  D
C566        C685   1.505       .  S
C567        C570   1.386       .  D
C567        C632   1.517       .  S
C568        C795   1.473       .  S
C569        C675   1.514       .  S
C570        C645   1.502       .  S
C571        H572   1.110       .  S
C571        C577   1.542       .  S
C571        C576   1.545       .  S
C571        C575   1.530       .  S
C573        H574   1.110       .  S
C573        C579   1.549       .  S
C573        C578   1.526       .  S
C573        C580   1.551       .  S
C575        C578   1.365       .  D
C575        C762   1.461       .  S
C576        C579   1.387       .  D
C576        C742   1.518       .  S
C577        C580   1.387       .  D
C577        C595   1.502       .  S
C578        C755   1.469       .  S
C579        C732   1.503       .  S
C580        C602   1.519       .  S
C581        H582   1.110       .  S
C581        C587   1.544       .  S
C581        C586   1.543       .  S
C581        C585   1.535       .  S
C583        H584   1.109       .  S
C583        C589   1.554       .  S
C583        C588   1.533       .  S
C583        C590   1.547       .  S
C585        C588   1.369       .  D
C585        C785   1.471       .  S
C586        C589   1.387       .  D
C586        C662   1.504       .  S
C587        C590   1.385       .  D
C587        C715   1.517       .  S
C588        C775   1.476       .  S
C589        C652   1.523       .  S
C590        C725   1.504       .  S
C591        C592   1.412       .  A
C591        C596   1.403       .  A
C591        F598   1.357       .  S
C592        C593   1.410       .  A
C593        C594   1.406       .  A
C593        F600   1.358       .  S
C594        C595   1.413       .  A
C594        F599   1.357       .  S
C595        C596   1.404       .  A
C596        F597   1.358       .  S
C601        C602   1.422       .  A
C601        C606   1.399       .  A
C601        F608   1.350       .  S
C602        C603   1.413       .  A
C603        C604   1.408       .  A
C603        F610   1.357       .  S
C604        C605   1.405       .  A
C604        F609   1.357       .  S
C605        C606   1.395       .  A
C606        F607   1.359       .  S
C611        C612   1.408       .  A
C611        C616   1.410       .  A
C611        F618   1.357       .  S
C612        C613   1.413       .  A
C613        C614   1.402       .  A
C613        F620   1.353       .  S
C614        C615   1.408       .  A
C614        F619   1.358       .  S
C615        C616   1.413       .  A
C616        F617   1.357       .  S
C621        C622   1.405       .  A
C621        C626   1.409       .  A
C621        F628   1.357       .  S
C622        C623   1.388       .  A
C623        C624   1.390       .  A
C623        F630   1.359       .  S
C624        C625   1.427       .  A
C624        F629   1.350       .  S
C625        C626   1.416       .  A
C626        F627   1.357       .  S
C631        C632   1.420       .  A
C631        C636   1.398       .  A
C631        F638   1.351       .  S
C632        C633   1.413       .  A
C633        C634   1.410       .  A
C633        F640   1.357       .  S
C634        C635   1.407       .  A
C634        F639   1.358       .  S
C635        C636   1.394       .  A
C636        F637   1.358       .  S
C641        C642   1.412       .  A
C641        C646   1.402       .  A
C641        F648   1.358       .  S
C642        C643   1.408       .  A
C643        C644   1.404       .  A
C643        F650   1.357       .  S
C644        C645   1.413       .  A
C644        F649   1.356       .  S
C645        C646   1.405       .  A
C646        F647   1.358       .  S
C651        C652   1.422       .  A
C651        C656   1.397       .  A
C651        F658   1.350       .  S
C652        C653   1.416       .  A
C653        C654   1.410       .  A
C653        F660   1.357       .  S
C654        C655   1.406       .  A
C654        F659   1.358       .  S
C655        C656   1.394       .  A
C656        F657   1.358       .  S
C661        C662   1.405       .  A
C661        C666   1.406       .  A
C661        F668   1.358       .  S
C662        C663   1.411       .  A
C663        C664   1.405       .  A
C663        F670   1.357       .  S
C664        C665   1.411       .  A
C664        F669   1.358       .  S
C665        C666   1.413       .  A
C666        F667   1.357       .  S
C671        C672   1.393       .  A
C671        C676   1.396       .  A
C671        F678   1.359       .  S
C672        C673   1.405       .  A
C673        C674   1.407       .  A
C673        F680   1.357       .  S
C674        C675   1.412       .  A
C674        F679   1.357       .  S
C675        C676   1.421       .  A
C676        F677   1.350       .  S
C681        C682   1.412       .  A
C681        C686   1.404       .  A
C681        F688   1.357       .  S
C682        C683   1.410       .  A
C683        C684   1.408       .  A
C683        F690   1.358       .  S
C684        C685   1.414       .  A
C684        F689   1.357       .  S
C685        C686   1.404       .  A
C686        F687   1.358       .  S
C691        C692   1.391       .  A
C691        C696   1.392       .  A
C691        F698   1.359       .  S
C692        C693   1.406       .  A
C693        C694   1.409       .  A
C693        F700   1.357       .  S
C694        C695   1.412       .  A
C694        F699   1.357       .  S
C695        C696   1.421       .  A
C696        F697   1.349       .  S
C701        C702   1.414       .  A
C701        C706   1.398       .  A
C701        F708   1.355       .  S
C702        C703   1.408       .  A
C703        C704   1.411       .  A
C703        F710   1.357       .  S
C704        C705   1.414       .  A
C704        F709   1.357       .  S
C705        C706   1.405       .  A
C706        F707   1.358       .  S
C711        C712   1.394       .  A
C711        C716   1.398       .  A
C711        F718   1.358       .  S
C712        C713   1.406       .  A
C713        C714   1.408       .  A
C713        F720   1.358       .  S
C714        C715   1.413       .  A
C714        F719   1.357       .  S
C715        C716   1.421       .  A
C716        F717   1.350       .  S
C721        C722   1.412       .  A
C721        C726   1.408       .  A
C721        F728   1.357       .  S
C722        C723   1.408       .  A
C723        C724   1.402       .  A
C723        F730   1.357       .  S
C724        C725   1.412       .  A
C724        F729   1.356       .  S
C725        C726   1.406       .  A
C726        F727   1.358       .  S
C731        C732   1.403       .  A
C731        C736   1.402       .  A
C731        F738   1.358       .  S
C732        C733   1.415       .  A
C733        C734   1.406       .  A
C733        F740   1.356       .  S
C734        C735   1.409       .  A
C734        F739   1.358       .  S
C735        C736   1.412       .  A
C736        F737   1.357       .  S
C741        C742   1.421       .  A
C741        C746   1.399       .  A
C741        F748   1.352       .  S
C742        C743   1.412       .  A
C743        C744   1.409       .  A
C743        F750   1.357       .  S
C744        C745   1.407       .  A
C744        F749   1.357       .  S
C745        C746   1.396       .  A
C746        F747   1.358       .  S
C751        C752   1.402       .  A
C751        C756   1.388       .  A
C751        F758   1.358       .  S
C752        C753   1.402       .  A
C753        C754   1.386       .  A
C753        F760   1.358       .  S
C754        C755   1.404       .  A
C754        F759   1.357       .  S
C755        C756   1.402       .  A
C756        F757   1.352       .  S
C761        C762   1.404       .  A
C761        C766   1.389       .  A
C761        F768   1.357       .  S
C762        C763   1.397       .  A
C763        C764   1.381       .  A
C763        F770   1.351       .  S
C764        C765   1.405       .  A
C764        F769   1.359       .  S
C765        C766   1.403       .  A
C766        F767   1.358       .  S
C771        C772   1.404       .  A
C771        C776   1.394       .  A
C771        F778   1.358       .  S
C772        C773   1.404       .  A
C773        C774   1.390       .  A
C773        F780   1.358       .  S
C774        C775   1.402       .  A
C774        F779   1.353       .  S
C775        C776   1.407       .  A
C776        F777   1.357       .  S
C781        C782   1.402       .  A
C781        C786   1.380       .  A
C781        F788   1.359       .  S
C782        C783   1.403       .  A
C783        C784   1.395       .  A
C783        F790   1.358       .  S
C784        C785   1.408       .  A
C784        F789   1.357       .  S
C785        C786   1.399       .  A
C786        F787   1.351       .  S
C791        C792   1.406       .  A
C791        C796   1.389       .  A
C791        F798   1.358       .  S
C792        C793   1.403       .  A
C793        C794   1.392       .  A
C793        F800   1.358       .  S
C794        C795   1.406       .  A
C794        F799   1.357       .  S
C795        C796   1.400       .  A
C796        F797   1.354       .  S
C801        C802   1.400       .  A
C801        C806   1.383       .  A
C801        F808   1.352       .  S
C802        C803   1.405       .  A
C803        C804   1.389       .  A
C803        F810   1.358       .  S
C804        C805   1.402       .  A
C804        F809   1.358       .  S
C805        C806   1.401       .  A
C806        F807   1.358       .  S
C811        C812   1.394       .  A
C811        C816   1.379       .  A
C811        F818   1.345       .  S
C812        C813   1.401       .  A
C813        C814   1.393       .  A
C813        F820   1.354       .  S
C814        C815   1.407       .  A
C814        F819   1.358       .  S
C815        C816   1.403       .  A
C816        F817   1.358       .  S
C821        C822   1.398       .  A
C821        C826   1.391       .  A
C821        F828   1.355       .  S
C822        C823   1.402       .  A
C823        C824   1.395       .  A
C823        F830   1.356       .  S
C824        C825   1.407       .  A
C824        F829   1.357       .  S
C825        C826   1.409       .  A
C826        F827   1.358       .  S
