geometry optimzed in LAMMPS
_audit_creation_date              2020-12-01 
_audit_creation_method            'lammps2cif' 
_symmetry_space_group_name_H-M    'P1' 
_symmetry_Int_Tables_number       1 
_symmetry_cell_setting            triclinic 
loop_ 
_symmetry_equiv_pos_as_xyz 
  x,y,z 
_cell_length_a                    36.22027045 
_cell_length_b                    36.22840535623217 
_cell_length_c                    36.30693088251577 
_cell_angle_alpha                 90.22994485999607 
_cell_angle_beta                  89.93502434639309 
_cell_angle_gamma                 90.2105201899839 
loop_ 
_atom_site_label 
_atom_site_type_symbol 
_atom_site_fract_x 
_atom_site_fract_y 
_atom_site_fract_z 
_atom_site_charge 
C1          C  0.58085853  0.87767632  0.69825555     0.80400
N2          N  0.54779469  0.86021753  0.69693225    -0.77900
C3          C  0.51602040  0.87905126  0.69266767     0.82800
N4          N  0.51742399  0.91641541  0.69087556    -0.77900
C5          C  0.55030327  0.93477780  0.69232806     0.82900
N6          N  0.58241188  0.91525943  0.69548672    -0.79600
C7          C  0.57865233  0.03373300  0.68460548     0.80400
N8          N  0.58118337  0.99620299  0.68708358    -0.77900
C9          C  0.54970605  0.97557305  0.69046986     0.82800
N10         N  0.51637295  0.99277401  0.69228680    -0.77900
C11         C  0.51380600  0.03006594  0.69064028     0.82900
N12         N  0.54507042  0.05010937  0.68640881    -0.79600
C13         C  0.91287544  0.72010428  0.53314218     0.80400
N14         N  0.89692493  0.72069285  0.49948348    -0.77900
C15         C  0.91701012  0.71815784  0.46818518     0.82800
N16         N  0.95432101  0.71514694  0.47098795    -0.77900
C17         C  0.97124478  0.71454533  0.50455189     0.82900
N18         N  0.95028005  0.71644720  0.53588582    -0.79600
C19         C  0.06793545  0.70582152  0.53901233     0.80400
N20         N  0.03041676  0.70905207  0.53889246    -0.77900
C21         C  0.01210778  0.71159617  0.50608472     0.82800
N22         N  0.03177613  0.71192779  0.47396156    -0.77900
C23         C  0.06928255  0.70961649  0.47418851     0.82900
N24         N  0.08677230  0.70616717  0.50679569    -0.79600
C25         C  0.56798839  0.70833006  0.36294809     0.80400
N26         N  0.53040523  0.70610578  0.36070126    -0.77900
C27         C  0.50997515  0.70352303  0.39228128     0.82800
N28         N  0.52740562  0.70245867  0.42549723    -0.77900
C29         C  0.56473823  0.70454281  0.42776291     0.82900
N30         N  0.58460851  0.70743834  0.39635243    -0.79600
C31         C  0.41180607  0.70102329  0.36122157     0.80400
N32         N  0.44945046  0.70169063  0.35981922    -0.77900
C33         C  0.46913669  0.70262914  0.39182910     0.82800
N34         N  0.45090427  0.70390281  0.42459271    -0.77900
C35         C  0.41348328  0.70403864  0.42623489     0.82900
N36         N  0.39428844  0.70238113  0.39425183    -0.79600
C37         C  0.74803508  0.54529686  0.86931374     0.80400
N38         N  0.74595162  0.51239590  0.85165254    -0.77900
C39         C  0.74207599  0.48033522  0.87005688     0.82800
N40         N  0.74103348  0.48157049  0.90751422    -0.77900
C41         C  0.74331931  0.51438594  0.92612427     0.82900
N42         N  0.74639527  0.54656500  0.90683877    -0.79600
C43         C  0.74207691  0.54291158  0.02535116     0.80400
N44         N  0.74153032  0.50928549  0.04152521    -0.77900
C45         C  0.74175858  0.47793422  0.02121856     0.82800
N46         N  0.74200398  0.48051514  0.98398177    -0.77900
C47         C  0.74267661  0.51388023  0.96695630     0.82900
N48         N  0.74303162  0.54546819  0.98779016    -0.79600
O49         O  0.63631228  0.31637400  0.71501865    -0.78300
C50         C  0.72117638  0.34008020  0.79157481     0.82700
O51         O  0.73406469  0.24680861  0.65936599    -0.79500
O52         O  0.76623211  0.22964274  0.79388352    -0.80900
O53         O  0.62846258  0.22214049  0.80076208    -0.80700
O54         O  0.60430935  0.26502983  0.72463409    -0.79400
Zn55       Zn  0.68987547  0.30233468  0.72244886     1.55700
O56         O  0.67981817  0.23398320  0.83216031    -0.80800
Cd57       Cd  0.64383774  0.23026949  0.74632409     1.59700
Cd58       Cd  0.72623236  0.22056970  0.71021412     1.59600
O59         O  0.64295127  0.17950673  0.72043195    -0.80700
O60         O  0.69399895  0.25265515  0.74237046    -1.91300
Cd61       Cd  0.71538322  0.25519078  0.79274802     1.59900
O62         O  0.70058599  0.16939072  0.70063435    -0.80700
O63         O  0.72381527  0.30941843  0.80831057    -0.79400
C64         C  0.72766448  0.28006963  0.64974207     0.83200
C65         C  0.60564039  0.29906293  0.71596520     0.82800
O66         O  0.71090410  0.34120429  0.75789737    -0.78300
C67         C  0.64594015  0.22426579  0.83112821     0.83600
O68         O  0.71317556  0.30357524  0.67166255    -0.78400
C69         C  0.66718757  0.15895984  0.70532487     0.83800
C70         C  0.78742888  0.21587330  0.76939919     0.84100
O71         O  0.77742712  0.21171035  0.73587642    -0.80800
O72         O  0.25745839  0.81183842  0.58861312    -0.78300
C73         C  0.33191145  0.72685231  0.56325499     0.82700
O74         O  0.20275367  0.71540111  0.66047703    -0.79500
O75         O  0.33719313  0.68022613  0.67004564    -0.80900
O76         O  0.34557356  0.81931675  0.67757411    -0.80700
O77         O  0.26752791  0.84428300  0.63944300    -0.79400
Zn78       Zn  0.26444684  0.75830132  0.60256058     1.55700
O79         O  0.37646644  0.76716821  0.66900774    -0.80800
Cd80       Cd  0.29083578  0.80424530  0.67253086     1.59700
Cd81       Cd  0.25505373  0.72169972  0.68400193     1.59600
O82         O  0.26927402  0.80456053  0.72483460    -0.80700
O83         O  0.28600210  0.75394343  0.65109133    -1.91300
Cd84       Cd  0.33616995  0.73241397  0.64754774     1.59900
O85         O  0.24985073  0.74683375  0.73575938    -0.80700
O86         O  0.35005828  0.72527541  0.59320489    -0.79400
C87         C  0.19205104  0.72181500  0.62762722     0.83200
C88         C  0.25837616  0.84267165  0.60560535     0.82800
O89         O  0.29803094  0.73649449  0.56302080    -0.78300
C90         C  0.37580743  0.80157221  0.67670786     0.83600
O91         O  0.21335923  0.73579042  0.60332608    -0.78400
C92         C  0.25605637  0.78000147  0.74618877     0.83800
C93         C  0.31268901  0.65884914  0.68353818     0.84100
O94         O  0.27965966  0.66950805  0.68983834    -0.80800
C95         C  0.08105747  0.53512816  0.19349263     0.80400
N96         N  0.08253609  0.49741021  0.19283790    -0.77900
C97         C  0.05041374  0.47756240  0.19479441     0.82800
N98         N  0.01770879  0.49566183  0.19818493    -0.77900
C99         C  0.01616447  0.53298404  0.19988193     0.82900
N100        N  0.04804016  0.55236021  0.19713562    -0.79600
C101        C  0.07636272  0.37753560  0.19653266     0.80400
N102        N  0.04225605  0.36226103  0.19423519    -0.77900
C103        C  0.01158070  0.38312428  0.19139394     0.82800
N104        N  0.01532754  0.42032260  0.19137285    -0.77900
C105        C  0.04920325  0.43667104  0.19359885     0.82900
N106        N  0.08014221  0.41515247  0.19597884    -0.79600
O107        O  0.84855260  0.59575087  0.22193365    -0.78300
C108        C  0.76163937  0.57083824  0.29403247     0.82700
O109        O  0.74807275  0.66217687  0.16373564    -0.79500
O110        O  0.71580129  0.67968728  0.29818056    -0.80900
O111        O  0.85128781  0.69593352  0.30206526    -0.80700
O112        O  0.87953734  0.64789901  0.23082121    -0.79400
Zn113      Zn  0.79454125  0.60906951  0.22666653     1.55700
O114        O  0.80237287  0.67962683  0.33545226    -0.80800
Cd115      Cd  0.83797095  0.68258139  0.24857638     1.59700
Cd116      Cd  0.75517749  0.68966864  0.21419829     1.59600
O117        O  0.83880455  0.73094655  0.21919640    -0.80700
O118        O  0.78843588  0.65874616  0.24609864    -1.91300
Cd119      Cd  0.76745607  0.65576017  0.29668813     1.59900
O120        O  0.78009949  0.74126426  0.20337916    -0.80700
O121        O  0.75988850  0.60125843  0.31163423    -0.79400
C122        C  0.75776323  0.62981744  0.15351638     0.83200
C123        C  0.87890487  0.61360843  0.22308910     0.82800
O124        O  0.77184592  0.57001076  0.26032879    -0.78300
C125        C  0.83483252  0.69318252  0.33294232     0.83600
O126        O  0.77403950  0.60743669  0.17508243    -0.78400
C127        C  0.81390790  0.75139496  0.20539346     0.83800
C128        C  0.69411142  0.69302818  0.27405245     0.84100
O129        O  0.70384204  0.69755577  0.24048046    -0.80800
C130        C  0.91294555  0.20084458  0.85754732     0.80400
N131        N  0.89567479  0.20362029  0.89057285    -0.77900
C132        C  0.91498423  0.20690215  0.92227835     0.82800
N133        N  0.95242306  0.20669176  0.92059075    -0.77900
C134        C  0.97051643  0.20397666  0.88777301     0.82900
N135        N  0.95062756  0.20142276  0.85589258    -0.79600
C136        C  0.06972346  0.20513809  0.85895695     0.80400
N137        N  0.03205610  0.20497495  0.85660602    -0.77900
C138        C  0.01143958  0.20342858  0.88815566     0.82800
N139        N  0.02877231  0.20132813  0.92135100    -0.77900
C140        C  0.06614561  0.20076084  0.92369544     0.82900
N141        N  0.08622851  0.20306928  0.89236540    -0.79600
O142        O  0.75644713  0.30994841  0.08389868    -0.78300
C143        C  0.83225652  0.22821232  0.05834569     0.82700
O144        O  0.70368006  0.21130860  0.15497743    -0.79500
O145        O  0.83857689  0.18142997  0.16318798    -0.80900
O146        O  0.84268056  0.32080904  0.17332452    -0.80700
O147        O  0.76347680  0.34266982  0.13532554    -0.79400
Zn148      Zn  0.76409916  0.25664373  0.09774382     1.55700
O149        O  0.87478783  0.26920892  0.16522544    -0.80800
Cd150      Cd  0.78841132  0.30368994  0.16828974     1.59700
Cd151      Cd  0.75539046  0.21983769  0.17948906     1.59600
O152        O  0.76693309  0.30331873  0.22071382    -0.80700
O153        O  0.78517469  0.25329291  0.14658382    -1.91300
Cd154      Cd  0.83595963  0.23398531  0.14247715     1.59900
O155        O  0.74794859  0.24533164  0.23095324    -0.80700
O156        O  0.85057093  0.22867413  0.08820912    -0.79400
C157        C  0.69291046  0.21798285  0.12217050     0.83200
C158        C  0.75565450  0.34061244  0.10118466     0.82800
O159        O  0.79772999  0.23516064  0.05798415    -0.78300
C160        C  0.87321257  0.30349337  0.17307228     0.83600
O161        O  0.71378189  0.23313544  0.09825500    -0.78400
C162        C  0.75357715  0.27852050  0.24171872     0.83800
C163        C  0.81548320  0.15905140  0.17747627     0.84100
O164        O  0.78253715  0.16869819  0.18578876    -0.80800
C165        C  0.41176799  0.22144672  0.03132618     0.80400
N166        N  0.39570872  0.22287107  0.99768754    -0.77900
C167        C  0.41570764  0.22070151  0.96627758     0.82800
N168        N  0.45287436  0.21708701  0.96890240    -0.77900
C169        C  0.46989464  0.21564784  0.00233797     0.82900
N170        N  0.44915953  0.21728025  0.03384974    -0.79600
C171        C  0.56725686  0.20482704  0.03429092     0.80400
N172        N  0.58513529  0.20552542  0.00154248    -0.77900
C173        C  0.56663294  0.20986721  0.96960346     0.82800
N174        N  0.52929640  0.21269109  0.97047856    -0.77900
C175        C  0.51060671  0.21204350  0.00310804     0.82900
N176        N  0.52976617  0.20859657  0.03533681    -0.79600
C177        C  0.24887256  0.86916840  0.87094604     0.80400
N178        N  0.24968689  0.90183219  0.85305891    -0.77900
C179        C  0.25460721  0.93400914  0.87134791     0.82800
N180        N  0.25778855  0.93330462  0.90870487    -0.77900
C181        C  0.25684511  0.90057630  0.92732373     0.82900
N182        N  0.25278415  0.86831716  0.90821646    -0.79600
C183        C  0.25758885  0.87066242  0.02561978     0.80400
N184        N  0.25655028  0.86898973  0.98806532    -0.77900
C185        C  0.25948932  0.90075449  0.96801985     0.82800
N186        N  0.26229969  0.93373812  0.98583676    -0.77900
C187        C  0.26283245  0.93557898  0.02320779     0.82900
N188        N  0.26020559  0.90389171  0.04266818    -0.79600
O189        O  0.34742939  0.09569557  0.71350153    -0.78300
C190        C  0.26626441  0.07241294  0.79058155     0.82700
O191        O  0.24891018  0.16490370  0.65874508    -0.79500
O192        O  0.21797935  0.17839008  0.79324136    -0.80900
O193        O  0.35598270  0.19444173  0.79821603    -0.80700
O194        O  0.38104402  0.14632785  0.72316364    -0.79400
Zn195      Zn  0.29415051  0.11006386  0.72080806     1.55700
O196        O  0.30445565  0.18287648  0.82922016    -0.80800
Cd197      Cd  0.34125888  0.18200487  0.74402877     1.59700
Cd198      Cd  0.25744730  0.19139518  0.70966433     1.59600
O199        O  0.34176297  0.23136269  0.71621574    -0.80700
O200        O  0.29077871  0.15972111  0.74077420    -1.91300
Cd201      Cd  0.27048675  0.15692137  0.79143825     1.59900
O202        O  0.28319294  0.24277488  0.70021665    -0.80700
O203        O  0.26595770  0.10282242  0.80822065    -0.79400
C204        C  0.25554228  0.13170492  0.64874596     0.83200
C205        C  0.37844998  0.11233039  0.71422518     0.82800
O206        O  0.27337221  0.07151128  0.75609571    -0.78300
C207        C  0.33778728  0.19418312  0.82833198     0.83600
O208        O  0.27063740  0.10840709  0.67023302    -0.78400
C209        C  0.31710953  0.25244389  0.70284119     0.83800
C210        C  0.19624419  0.19244967  0.76962628     0.84100
O211        O  0.20616930  0.19877596  0.73639861    -0.80800
C212        C  0.25075148  0.04554489  0.36853572     0.80400
N213        N  0.25113009  0.01283623  0.35041480    -0.77900
C214        C  0.25124870  0.98050047  0.36888124     0.82800
N215        N  0.25057816  0.98096722  0.40629656    -0.77900
C216        C  0.24985258  0.01359253  0.42514764     0.82900
N217        N  0.24938244  0.04607330  0.40608566    -0.79600
C218        C  0.23720718  0.04309673  0.52283473     0.80400
N219        N  0.24272849  0.04483725  0.48573019    -0.77900
C220        C  0.24628442  0.01294318  0.46581927     0.82800
N221        N  0.24545534  0.97976050  0.48352637    -0.77900
C222        C  0.24048948  0.97797401  0.52063203     0.82900
N223        N  0.23623298  0.00986070  0.53965373    -0.79600
O224        O  0.22881615  0.10249322  0.08477225    -0.78300
C225        C  0.14683650  0.18060091  0.06035186     0.82700
O226        O  0.27764689  0.20059196  0.15497564    -0.79500
O227        O  0.14122931  0.22711637  0.16814283    -0.80900
O228        O  0.13826064  0.08756116  0.17424421    -0.80700
O229        O  0.21968153  0.06793567  0.13447761    -0.79400
Zn230      Zn  0.21696831  0.15493342  0.09856855     1.55700
O231        O  0.10655144  0.13946884  0.16752549    -0.80800
Cd232      Cd  0.19272041  0.10568944  0.16845561     1.59700
Cd233      Cd  0.22634054  0.19009967  0.18038509     1.59600
O234        O  0.21336898  0.10672142  0.22131684    -0.80700
O235        O  0.19591136  0.15662662  0.14766297    -1.91300
Cd236      Cd  0.14460831  0.17539296  0.14459292     1.59900
O237        O  0.23403138  0.16417818  0.23186347    -0.80700
O238        O  0.12880423  0.18081751  0.09044970    -0.79400
C239        C  0.28708030  0.19675028  0.12121902     0.83200
C240        C  0.22975013  0.07139339  0.10094012     0.82800
O241        O  0.18134377  0.17362316  0.05954389    -0.78300
C242        C  0.10781915  0.10512057  0.17497918     0.83600
O243        O  0.26559211  0.18222772  0.09738985    -0.78400
C244        C  0.22706236  0.13125330  0.24264033     0.83800
C245        C  0.16445938  0.24949681  0.18238440     0.84100
O246        O  0.19820594  0.24069181  0.18789442    -0.80800
C247        C  0.90308445  0.87625343  0.18524811     0.80400
N248        N  0.90093932  0.91364035  0.18996818    -0.77900
C249        C  0.93265292  0.93380924  0.19430353     0.82800
N250        N  0.96581822  0.91624799  0.19481634    -0.77900
C251        C  0.96811001  0.87913883  0.19042657     0.82900
N252        N  0.93655851  0.85965283  0.18549724    -0.79600
C253        C  0.90198587  0.03199585  0.20008168     0.80400
N254        N  0.93522529  0.04929201  0.20036253    -0.77900
C255        C  0.96717555  0.03007857  0.19905101     0.82800
N256        N  0.96558456  0.99265686  0.19812749    -0.77900
C257        C  0.93249502  0.97455410  0.19777858     0.82900
N258        N  0.90045930  0.99439060  0.19797962    -0.79600
O259        O  0.13480558  0.81702904  0.21722786    -0.78300
C260        C  0.22178017  0.84445824  0.28973520     0.82700
O261        O  0.23496394  0.75090546  0.16085129    -0.79500
O262        O  0.26768046  0.73593453  0.29524783    -0.80900
O263        O  0.13078079  0.72710563  0.30544387    -0.80700
O264        O  0.10400258  0.76514800  0.22739004    -0.79400
Zn265      Zn  0.18835562  0.80437871  0.22389517     1.55700
O266        O  0.18238662  0.73892363  0.33619189    -0.80800
Cd267      Cd  0.14491641  0.73277181  0.25062087     1.59700
Cd268      Cd  0.22695782  0.72427276  0.21202314     1.59600
O269        O  0.14557508  0.68020076  0.22872588    -0.80700
O270        O  0.19449623  0.75571218  0.24479113    -1.91300
Cd271      Cd  0.21640817  0.76010685  0.29494516     1.59900
O272        O  0.20172918  0.67243893  0.20404613    -0.80700
O273        O  0.22506126  0.81481463  0.30813586    -0.79400
C274        C  0.22583512  0.78350781  0.15098945     0.83200
C275        C  0.10460570  0.79897062  0.21783961     0.82800
O276        O  0.21012770  0.84412491  0.25660666    -0.78300
C277        C  0.14850467  0.72909255  0.33563321     0.83600
O278        O  0.20971302  0.80571387  0.17297834    -0.78400
C279        C  0.16959056  0.66033764  0.21240121     0.83800
C280        C  0.28855302  0.72142363  0.27094616     0.84100
O281        O  0.27811734  0.71585407  0.23775477    -0.80800
C282        C  0.40562741  0.37838625  0.68491483     0.80400
N283        N  0.40314891  0.41588843  0.68753468    -0.77900
C284        C  0.43466021  0.43656327  0.69093613     0.82800
N285        N  0.46814476  0.41937926  0.69262194    -0.77900
C286        C  0.47048631  0.38200766  0.69050833     0.82900
N287        N  0.43913008  0.36212667  0.68650746    -0.79600
C288        C  0.40146209  0.53381105  0.69879125     0.80400
N289        N  0.43421103  0.55190427  0.69993468    -0.77900
C290        C  0.46661453  0.53370427  0.69744412     0.82800
N291        N  0.46601555  0.49631977  0.69462848    -0.77900
C292        C  0.43347148  0.47736120  0.69358839     0.82900
N293        N  0.40086765  0.49628052  0.69514506    -0.79600
C294        C  0.73191867  0.36513622  0.36734714     0.80400
N295        N  0.73418905  0.36413552  0.40482213    -0.77900
C296        C  0.73574283  0.39643254  0.42427848     0.82800
N297        N  0.73619933  0.42914808  0.40584326    -0.77900
C298        C  0.73468750  0.43028681  0.36840956     0.82900
N299        N  0.73243892  0.39801531  0.34969477    -0.79600
C300        C  0.74301219  0.36705992  0.52255702     0.80400
N301        N  0.73993219  0.36508161  0.48511155    -0.77900
C302        C  0.73812266  0.39694996  0.46504562     0.82800
N303        N  0.73852611  0.43024176  0.48278458    -0.77900
C304        C  0.74122268  0.43216552  0.52005732     0.82900
N305        N  0.74360246  0.40044131  0.53936255    -0.79600
O306        O  0.62783624  0.68179035  0.59560641    -0.78300
C307        C  0.60751395  0.60969791  0.68156141     0.82700
O308        O  0.70118525  0.74117011  0.68993877    -0.79500
O309        O  0.71660394  0.60699303  0.72304928    -0.80900
O310        O  0.72305571  0.59928421  0.58486094    -0.80700
O311        O  0.67844393  0.67509757  0.56143973    -0.79400
Zn312      Zn  0.64467560  0.67739839  0.64839438     1.55700
O313        O  0.71344069  0.56841699  0.63673570    -0.80800
Cd314      Cd  0.71500582  0.65397456  0.59992086     1.59700
Cd315      Cd  0.72701448  0.69009157  0.68191247     1.59600
O316        O  0.76607999  0.67968648  0.59765572    -0.80700
O317        O  0.69421621  0.65773306  0.65069713    -1.91300
Cd318      Cd  0.69150853  0.60742686  0.67215767     1.59900
O319        O  0.77789124  0.69879201  0.65518219    -0.80700
O320        O  0.63741097  0.59137649  0.68109833    -0.79400
C321        C  0.66778668  0.75074992  0.68417397     0.83200
C322        C  0.64398242  0.68165081  0.56443704     0.82800
O323        O  0.60720447  0.64375793  0.67273384    -0.78300
C324        C  0.72201649  0.56904361  0.60268267     0.83600
O325        O  0.64400952  0.72872273  0.67023268    -0.78400
C326        C  0.78753794  0.69413294  0.62158930     0.83800
C327        C  0.73075469  0.63172783  0.74379936     0.84100
O328        O  0.73568016  0.66499716  0.73322320    -0.80800
C329        C  0.72951992  0.53366318  0.58274568     0.00000
C330        C  0.74355891  0.53476740  0.54651673    -0.11900
C331        C  0.74829215  0.50241568  0.52556791     0.02200
C332        C  0.73858077  0.46779428  0.54063286    -0.00100
C333        C  0.72550108  0.46668679  0.57710049    -0.11800
C334        C  0.72097516  0.49875688  0.59809578     0.02100
H335        H  0.75084188  0.56107716  0.53429922     0.15100
H336        H  0.71786458  0.44047442  0.58933735     0.15100
C337        C  0.70637084  0.49445876  0.63489581     0.36800
C338        C  0.76444780  0.50571680  0.48938581     0.36700
N339        N  0.69468518  0.49081054  0.66434676    -0.43600
N340        N  0.77782938  0.50871482  0.46059839    -0.43600
C341        C  0.57181660  0.59079267  0.69022181     0.00000
C342        C  0.53881910  0.60939662  0.68223646    -0.11900
C343        C  0.50444779  0.59191938  0.68510041     0.02200
C344        C  0.50221081  0.55454888  0.69643609    -0.00100
C345        C  0.53501874  0.53637255  0.70603174    -0.11800
C346        C  0.56948239  0.55400548  0.70332715     0.02100
H347        H  0.53976027  0.63757674  0.67229238     0.15100
H348        H  0.53384343  0.50804949  0.71556047     0.15100
C349        C  0.60164176  0.53338666  0.71439916     0.36800
C350        C  0.47243506  0.61293209  0.67424221     0.36700
N351        N  0.62717435  0.51661870  0.72349416    -0.43600
N352        N  0.44695240  0.62997638  0.66551462    -0.43600
C353        C  0.00393533  0.85909649  0.19412661     0.00000
C354        C  0.00293834  0.82059698  0.19935420    -0.11900
C355        C  0.03501393  0.80029384  0.20608746     0.02200
C356        C  0.06965784  0.81840989  0.20796671    -0.00100
C357        C  0.07089751  0.85667402  0.20114025    -0.11800
C358        C  0.03877533  0.87694566  0.19405885     0.02100
H359        H  0.97674326  0.80600853  0.19899969     0.15100
H360        H  0.09714619  0.87117068  0.20165392     0.15100
C361        C  0.04293623  0.91576416  0.18611758     0.36800
C362        C  0.03099405  0.76095271  0.21113245     0.36700
N363        N  0.04659953  0.94678118  0.17949496    -0.43600
N364        N  0.02764195  0.72943914  0.21513237    -0.43600
C365        C  0.07243258  0.08542318  0.18305774     0.00000
C366        C  0.03965513  0.10066061  0.16926994    -0.11900
C367        C  0.00548191  0.08332303  0.17426294     0.02200
C368        C  0.00304679  0.04990162  0.19424872    -0.00100
C369        C  0.03573081  0.03463523  0.20840139    -0.11800
C370        C  0.07020903  0.05185941  0.20288761     0.02100
H371        H  0.04073573  0.12593089  0.15337025     0.15100
H372        H  0.03433951  0.00918167  0.22395230     0.15100
C373        C  0.10253756  0.03468475  0.21840984     0.36800
C374        C  0.97385279  0.09971183  0.15653473     0.36700
N375        N  0.12837941  0.02078130  0.23084601    -0.43600
N376        N  0.94864384  0.11288498  0.14217330    -0.43600
C377        C  0.24607349  0.94569344  0.34795142     0.00000
C378        C  0.22053658  0.94552665  0.31884822    -0.11900
C379        C  0.21260390  0.91322932  0.29912683     0.02200
C380        C  0.23094181  0.88005139  0.30802154    -0.00100
C381        C  0.25715119  0.88043609  0.33663884    -0.11800
C382        C  0.26484624  0.91282342  0.35653135     0.02100
H383        H  0.20564321  0.97058684  0.31225859     0.15100
H384        H  0.27169713  0.85528269  0.34357276     0.15100
C385        C  0.29291112  0.91180835  0.38468774     0.36800
C386        C  0.18382092  0.91467950  0.27162903     0.36700
N387        N  0.31555268  0.91079968  0.40712140    -0.43600
N388        N  0.16060481  0.91592217  0.24978851    -0.43600
C389        C  0.24599525  0.07902564  0.34602321     0.00000
C390        C  0.20994802  0.08777223  0.33525727    -0.11900
C391        C  0.20344121  0.10810680  0.30319509     0.02200
C392        C  0.23338035  0.12028792  0.28137046    -0.00100
C393        C  0.26950229  0.11495532  0.29421642    -0.11800
C394        C  0.27595906  0.09427239  0.32629715     0.02100
H395        H  0.18676908  0.07577313  0.34998519     0.15100
H396        H  0.29266047  0.12425958  0.27767641     0.15100
C397        C  0.31349523  0.08664189  0.33705884     0.36800
C398        C  0.16570861  0.11401085  0.29182720     0.36700
N399        N  0.34355311  0.08062749  0.34591310    -0.43600
N400        N  0.13548527  0.11878978  0.28275592    -0.43600
C401        C  0.37317345  0.35353040  0.68211152     0.00000
C402        C  0.37568628  0.32428264  0.65669728    -0.11900
C403        C  0.35464949  0.29215658  0.66096800     0.02200
C404        C  0.32956154  0.28922968  0.69047150    -0.00100
C405        C  0.32399416  0.31994305  0.71358454    -0.11800
C406        C  0.34584420  0.35195481  0.70983532     0.02100
H407        H  0.39678093  0.32509020  0.63545617     0.15100
H408        H  0.30522370  0.31757375  0.73676639     0.15100
C409        C  0.34295349  0.38057179  0.73744426     0.36800
C410        C  0.36184515  0.26117324  0.63686293     0.36700
N411        N  0.34076707  0.40341574  0.75970466    -0.43600
N412        N  0.36780037  0.23628259  0.61771303    -0.43600
C413        C  0.23573705  0.07618105  0.54677200     0.00000
C414        C  0.26789178  0.09745623  0.55098106    -0.11900
C415        C  0.27350438  0.11872227  0.58295757     0.02200
C416        C  0.24642794  0.11918746  0.61099329    -0.00100
C417        C  0.21269018  0.10116421  0.60489566    -0.11800
C418        C  0.20713825  0.07983484  0.57304199     0.02100
H419        H  0.29014769  0.09457070  0.53116324     0.15100
H420        H  0.19167634  0.10158169  0.62620901     0.15100
C421        C  0.17284984  0.05973953  0.56903944     0.36800
C422        C  0.30848585  0.13731375  0.58780368     0.36700
N423        N  0.14537061  0.04367430  0.56572080    -0.43600
N424        N  0.33657076  0.15217032  0.59158829    -0.43600
C425        C  0.24952139  0.83836245  0.04907955     0.00000
C426        C  0.21291314  0.83379723  0.06072680    -0.11900
C427        C  0.20450905  0.81366732  0.09251889     0.02200
C428        C  0.23302696  0.79685840  0.11300694    -0.00100
C429        C  0.26932066  0.79842346  0.09938605    -0.11800
C430        C  0.27779823  0.81954445  0.06796391     0.02100
H431        H  0.19111717  0.84871936  0.04678383     0.15100
H432        H  0.29143110  0.78579100  0.11495331     0.15100
C433        C  0.31593416  0.82395857  0.05727821     0.36800
C434        C  0.16656767  0.81263277  0.10486211     0.36700
N435        N  0.34652313  0.82753224  0.04872755    -0.43600
N436        N  0.13621427  0.81202006  0.11484804    -0.43600
C437        C  0.24196590  0.03834119  0.07988327     0.00000
C438        C  0.25927411  0.00931512  0.09858230    -0.11900
C439        C  0.26856100  0.97642758  0.08034238     0.02200
C440        C  0.26004438  0.97184412  0.04249241    -0.00100
C441        C  0.24455408  0.00169408  0.02344445    -0.11800
C442        C  0.23529117  0.03450663  0.04163076     0.02100
H443        H  0.26526925  0.01217625  0.12772113     0.15100
H444        H  0.23767572  0.99881076  0.99450578     0.15100
C445        C  0.21637716  0.06247897  0.02065924     0.36800
C446        C  0.28683571  0.94805138  0.10131756     0.36700
N447        N  0.20107536  0.08468570  0.00374194    -0.43600
N448        N  0.30146956  0.92536422  0.11819191    -0.43600
C449        C  0.25689605  0.96922175  0.85022191     0.00000
C450        C  0.24426375  0.00210986  0.86638272    -0.11900
C451        C  0.24546476  0.03570215  0.84717768     0.02200
C452        C  0.26030759  0.03711587  0.81098727    -0.00100
C453        C  0.27231715  0.00404747  0.79469466    -0.11800
C454        C  0.27081041  0.97051208  0.81368912     0.02100
H455        H  0.23285781  0.00152344  0.89401711     0.15100
H456        H  0.28401353  0.00440501  0.76717489     0.15100
C457        C  0.28527051  0.93826542  0.79517744     0.36800
C458        C  0.23044974  0.06793569  0.86522358     0.36700
N459        N  0.29674826  0.91245153  0.78025196    -0.43600
N460        N  0.21828485  0.09369823  0.87969267    -0.43600
C461        C  0.38683312  0.22208135  0.06382493     0.00000
C462        C  0.38601117  0.19177259  0.08783252    -0.11900
C463        C  0.35476853  0.18488789  0.10995440     0.02200
C464        C  0.32400953  0.20870275  0.10833182    -0.00100
C465        C  0.32647686  0.24085158  0.08719700    -0.11800
C466        C  0.35757751  0.24782643  0.06529159     0.02100
H467        H  0.40810076  0.17166351  0.08678697     0.15100
H468        H  0.30299111  0.25929721  0.08584721     0.15100
C469        C  0.35776081  0.28037402  0.04242030     0.36800
C470        C  0.35341213  0.15153890  0.13154365     0.36700
N471        N  0.35805471  0.30633167  0.02394813    -0.43600
N472        N  0.35220514  0.12483083  0.14889076    -0.43600
C473        C  0.35636501  0.20571649  0.86342905     0.00000
C474        C  0.39397374  0.21596988  0.86284157    -0.11900
C475        C  0.41375903  0.22261098  0.89554451     0.02200
C476        C  0.39603290  0.21868159  0.93009753    -0.00100
C477        C  0.35795448  0.21088852  0.93044799    -0.11800
C478        C  0.33814865  0.20457801  0.89800329     0.02100
H479        H  0.40837658  0.21809403  0.83673437     0.15100
H480        H  0.34337896  0.20848099  0.95644238     0.15100
C481        C  0.29929475  0.19615609  0.90178736     0.36800
C482        C  0.45196887  0.23376049  0.89251393     0.36700
N483        N  0.26820928  0.18940099  0.90508657    -0.43600
N484        N  0.48252817  0.24287354  0.88996391    -0.43600
C485        C  0.65500915  0.20871270  0.11059174     0.00000
C486        C  0.62812122  0.23652729  0.11175530    -0.11900
C487        C  0.59591937  0.23371658  0.09038969     0.02200
C488        C  0.59039164  0.20252868  0.06765297    -0.00100
C489        C  0.61559234  0.17318249  0.06952362    -0.11800
C490        C  0.64784749  0.17614145  0.09057946     0.02100
H491        H  0.63383467  0.26189679  0.12670773     0.15100
H492        H  0.61184198  0.14937574  0.05166976     0.15100
C493        C  0.67497463  0.14710424  0.08828472     0.36800
C494        C  0.57153655  0.26508709  0.08855822     0.36700
N495        N  0.69684778  0.12396602  0.08641154    -0.43600
N496        N  0.55208259  0.29029537  0.08693514    -0.43600
C497        C  0.82805969  0.12049700  0.18249885     0.00000
C498        C  0.83000304  0.10497707  0.21784444    -0.11900
C499        C  0.85077508  0.07274625  0.22396756     0.02200
C500        C  0.86921962  0.05542666  0.19432558    -0.00100
C501        C  0.86398345  0.06891928  0.15862707    -0.11800
C502        C  0.84388830  0.10120057  0.15252069     0.02100
H503        H  0.81783686  0.11950593  0.24101309     0.15100
H504        H  0.87843734  0.05603777  0.13576713     0.15100
C505        C  0.84187064  0.11531899  0.11539364     0.36800
C506        C  0.85487741  0.05931305  0.26108128     0.36700
N507        N  0.84033898  0.12673384  0.08570871    -0.43600
N508        N  0.85798716  0.04842940  0.29083590    -0.43600
C509        C  0.73340516  0.33160020  0.34430286     0.00000
C510        C  0.76820301  0.31637338  0.33719325    -0.11900
C511        C  0.77454291  0.29566918  0.30515129     0.02200
C512        C  0.74548998  0.28947689  0.27998594    -0.00100
C513        C  0.70986402  0.30140644  0.28898178    -0.11800
C514        C  0.70362215  0.32243920  0.32087092     0.02100
H515        H  0.79152074  0.32384867  0.35485954     0.15100
H516        H  0.68733464  0.29680506  0.26950709     0.15100
C517        C  0.66705740  0.33662374  0.32772098     0.36800
C518        C  0.81166019  0.28370980  0.29695138     0.36700
N519        N  0.63766044  0.34777040  0.33325472    -0.43600
N520        N  0.84137056  0.27411742  0.29025276    -0.43600
C521        C  0.12641402  0.18735403  0.02560552     0.00000
C522        C  0.08998073  0.17416389  0.02263071    -0.11900
C523        C  0.06959958  0.17846610  0.99015354     0.02200
C524        C  0.08547218  0.19694254  0.95969754    -0.00100
C525        C  0.12175978  0.21069907  0.96300786    -0.11800
C526        C  0.14222826  0.20602246  0.99539558     0.02100
H527        H  0.07764453  0.15939569  0.04552186     0.15100
H528        H  0.13433608  0.22525774  0.94012589     0.15100
C529        C  0.17893655  0.22161841  0.99718405     0.36800
C530        C  0.03333714  0.16181688  0.98848737     0.36700
N531        N  0.20832086  0.23419862  0.99861088    -0.43600
N532        N  0.00435265  0.14831119  0.98722543    -0.43600
C533        C  0.09417624  0.20691580  0.82633959     0.00000
C534        C  0.11992307  0.23597032  0.82499054    -0.11900
C535        C  0.15195248  0.23329176  0.80347526     0.02200
C536        C  0.15849376  0.20126049  0.78238086    -0.00100
C537        C  0.13133658  0.17345350  0.78130334    -0.11800
C538        C  0.09934201  0.17598694  0.80318519     0.02100
H539        H  0.11654337  0.25950347  0.84325784     0.15100
H540        H  0.13659202  0.14834990  0.76579982     0.15100
C541        C  0.07452611  0.14475510  0.80471788     0.36800
C542        C  0.17937384  0.26220395  0.80614908     0.36700
N543        N  0.05472396  0.11965438  0.80610683    -0.43600
N544        N  0.20141733  0.28530193  0.80840511    -0.43600
C545        C  0.89473561  0.21115373  0.95794702     0.00000
C546        C  0.85700588  0.20136223  0.95941397    -0.11900
C547        C  0.83600017  0.20624748  0.99155783     0.02200
C548        C  0.85270970  0.22101992  0.02350307    -0.00100
C549        C  0.89045002  0.23022438  0.02227659    -0.11800
C550        C  0.91135690  0.22583437  0.99012674     0.02100
H551        H  0.84362173  0.18979158  0.93526731     0.15100
H552        H  0.90365728  0.24205141  0.04641830     0.15100
C553        C  0.94921915  0.23845493  0.99099658     0.36800
C554        C  0.79767961  0.19508208  0.99103194     0.36700
N555        N  0.97945896  0.24884569  0.99201543    -0.43600
N556        N  0.76698508  0.18609343  0.99048617    -0.43600
C557        C  0.75230746  0.53554560  0.31336532     0.00000
C558        C  0.74705329  0.50320383  0.29246216    -0.11900
C559        C  0.74005110  0.46899843  0.30921536     0.02200
C560        C  0.73844364  0.46625782  0.34826831    -0.00100
C561        C  0.74238670  0.49889306  0.36896452    -0.11800
C562        C  0.74947271  0.53300061  0.35225766     0.02100
H563        H  0.74857774  0.50449508  0.26265801     0.15100
H564        H  0.74055036  0.49784668  0.39868496     0.15100
C565        C  0.75498683  0.56439745  0.37631505     0.36800
C566        C  0.73471116  0.43760897  0.28509173     0.36700
N567        N  0.75944039  0.58937759  0.39580335    -0.43600
N568        N  0.73034942  0.41265306  0.26553968    -0.43600
C569        C  0.87019870  0.85178964  0.18281358     0.00000
C570        C  0.87145763  0.82264318  0.15713679    -0.11900
C571        C  0.84971988  0.79094267  0.16169075     0.02200
C572        C  0.82585396  0.78809172  0.19220643    -0.00100
C573        C  0.82139391  0.81882204  0.21549650    -0.11800
C574        C  0.84332060  0.85065484  0.21099804     0.02100
H575        H  0.89185760  0.82326455  0.13523171     0.15100
H576        H  0.80331349  0.81665984  0.23923844     0.15100
C577        C  0.84076635  0.87972951  0.23814400     0.36800
C578        C  0.85450744  0.76043273  0.13640816     0.36700
N579        N  0.83874634  0.90306157  0.25990654    -0.43600
N580        N  0.85828925  0.73602031  0.11611145    -0.43600
C581        C  0.10777027  0.35151356  0.19995040     0.00000
C582        C  0.10316548  0.32200867  0.22461093    -0.11900
C583        C  0.12374680  0.28959519  0.22106357     0.02200
C584        C  0.15047168  0.28642660  0.19304246    -0.00100
C585        C  0.15769278  0.31713904  0.17047645    -0.11800
C586        C  0.13642001  0.34957326  0.17362590     0.02100
H587        H  0.08109321  0.32304945  0.24483512     0.15100
H588        H  0.17779277  0.31470499  0.14844521     0.15100
C589        C  0.14175455  0.37870999  0.14714967     0.36800
C590        C  0.11486429  0.25873664  0.24460096     0.36700
N591        N  0.14585854  0.40213308  0.12593800    -0.43600
N592        N  0.10765458  0.23389556  0.26325018    -0.43600
C593        C  0.90784362  0.32423133  0.18069833     0.00000
C594        C  0.90968188  0.36192042  0.17168308    -0.11900
C595        C  0.94266981  0.38204923  0.17517708     0.02200
C596        C  0.97480350  0.36456315  0.18875658    -0.00100
C597        C  0.97235077  0.32717111  0.19902176    -0.11800
C598        C  0.93962354  0.30701004  0.19495285     0.02100
H599        H  0.88555999  0.37546723  0.16042175     0.15100
H600        H  0.99631628  0.31321087  0.21007731     0.15100
C601        C  0.93957155  0.26876872  0.20607757     0.36800
C602        C  0.94275860  0.41982105  0.16262329     0.36700
N603        N  0.93961419  0.23811137  0.21491525    -0.43600
N604        N  0.94245112  0.45000676  0.15230021    -0.43600
C605        C  0.11427655  0.55887676  0.19152426     0.00000
C606        C  0.13718033  0.56179244  0.22257220    -0.11900
C607        C  0.15919600  0.59339533  0.22814391     0.02200
C608        C  0.15834251  0.62243742  0.20231282    -0.00100
C609        C  0.13862789  0.61760555  0.16952653    -0.11800
C610        C  0.11678742  0.58613386  0.16391174     0.02100
H611        H  0.13528792  0.54113860  0.24404924     0.15100
H612        H  0.13792035  0.63980226  0.14956075     0.15100
C613        C  0.09484541  0.58378274  0.13080899     0.36800
C614        C  0.18039533  0.59657265  0.26166224     0.36700
N615        N  0.07739064  0.58198667  0.10418558    -0.43600
N616        N  0.19755612  0.59882666  0.28845303    -0.43600
C617        C  0.91411602  0.59357867  0.21611371     0.00000
C618        C  0.91523369  0.55537861  0.22258024    -0.11900
C619        C  0.94788525  0.53518009  0.21820425     0.02200
C620        C  0.98038233  0.55282444  0.20526643    -0.00100
C621        C  0.97911127  0.59108564  0.19857108    -0.11800
C622        C  0.94683427  0.61153859  0.20446534     0.02100
H623        H  0.89072705  0.54131690  0.23259474     0.15100
H624        H  0.00363642  0.60542841  0.18904387     0.15100
C625        C  0.94841219  0.65090880  0.19842827     0.36800
C626        C  0.94741265  0.49712992  0.22988594     0.36700
N627        N  0.94976565  0.68250649  0.19399563    -0.43600
N628        N  0.94690449  0.46682116  0.23983870    -0.43600
C629        C  0.25018924  0.87727012  0.58479586     0.00000
C630        C  0.24613126  0.87526824  0.54622181    -0.11900
C631        C  0.24215739  0.90709242  0.52463644     0.02200
C632        C  0.24201272  0.94237870  0.54152373    -0.00100
C633        C  0.24441274  0.94414612  0.58027312    -0.11800
C634        C  0.24850165  0.91245861  0.60180468     0.02100
H635        H  0.24690591  0.84864674  0.53248745     0.15100
H636        H  0.24395777  0.97066157  0.59421957     0.15100
C637        C  0.25135116  0.91752685  0.64121362     0.36800
C638        C  0.23826360  0.90218672  0.48536517     0.36700
N639        N  0.25369238  0.92193854  0.67272280    -0.43600
N640        N  0.23506722  0.89783860  0.45393548    -0.43600
C641        C  0.32389992  0.62045123  0.69115464     0.00000
C642        C  0.34000133  0.61259076  0.72526080    -0.11900
C643        C  0.36191374  0.58109900  0.72974392     0.02200
C644        C  0.36770795  0.55666821  0.69986263    -0.00100
C645        C  0.34838103  0.56251820  0.66693012    -0.11800
C646        C  0.32679423  0.59434355  0.66230094     0.02100
H647        H  0.33813941  0.63266512  0.74743042     0.15100
H648        H  0.35316697  0.54434638  0.64360721     0.15100
C649        C  0.31065662  0.60143393  0.62667707     0.36800
C650        C  0.38111953  0.57618959  0.76420007     0.36700
N651        N  0.29773615  0.60724681  0.59815190    -0.43600
N652        N  0.39668599  0.57224510  0.79171086    -0.43600
C653        C  0.24877813  0.79134926  0.78440290     0.00000
C654        C  0.27854869  0.79187713  0.80910514    -0.11900
C655        C  0.27750215  0.81401198  0.84085370     0.02200
C656        C  0.24599383  0.83553949  0.84828131    -0.00100
C657        C  0.21492551  0.83205165  0.82543185    -0.11800
C658        C  0.21618793  0.81038477  0.79346282     0.02100
H659        H  0.30396476  0.77788240  0.80174382     0.15100
H660        H  0.19092217  0.84914735  0.83063792     0.15100
C661        C  0.18528913  0.81129118  0.76838660     0.36800
C662        C  0.31072929  0.81806673  0.86246391     0.36700
N663        N  0.16059323  0.81217425  0.74821837    -0.43600
N664        N  0.33745954  0.82151894  0.87958630    -0.43600
C665        C  0.62607072  0.21763755  0.86651607     0.00000
C666        C  0.64048421  0.23371785  0.89876193    -0.11900
C667        C  0.62173709  0.23143436  0.93237300     0.02200
C668        C  0.58741064  0.21277394  0.93444774    -0.00100
C669        C  0.57307079  0.19624914  0.90246546    -0.11800
C670        C  0.59218509  0.19805775  0.86882908     0.02100
H671        H  0.66618094  0.24913539  0.89765091     0.15100
H672        H  0.54714414  0.18126032  0.90390079     0.15100
C673        C  0.57689971  0.17837954  0.83769700     0.36800
C674        C  0.63782437  0.25001877  0.96383618     0.36700
N675        N  0.56463220  0.16226142  0.81296436    -0.43600
N676        N  0.65083391  0.26486542  0.98897995    -0.43600
C677        C  0.57077239  0.31944872  0.70788117     0.00000
C678        C  0.57267930  0.35465695  0.69145072    -0.11900
C679        C  0.54074267  0.37571472  0.68518654     0.02200
C680        C  0.50585722  0.36182751  0.69583014    -0.00100
C681        C  0.50400164  0.32658154  0.71180970    -0.11800
C682        C  0.53557840  0.30540638  0.71770950     0.02100
H683        H  0.59924376  0.36582551  0.68322290     0.15100
H684        H  0.47750755  0.31540739  0.72030936     0.15100
C685        C  0.53046455  0.26972120  0.73466721     0.36800
C686        C  0.54455136  0.41062189  0.66649271     0.36700
N687        N  0.52604075  0.24113580  0.74813377    -0.43600
N688        N  0.54776158  0.43846627  0.65127775    -0.43600
C689        C  0.73682918  0.29255313  0.61206656     0.00000
C690        C  0.70965458  0.29069949  0.58448231    -0.11900
C691        C  0.71326247  0.31127527  0.55184441     0.02200
C692        C  0.74438513  0.33427195  0.54677399    -0.00100
C693        C  0.77303787  0.33309085  0.57283715    -0.11800
C694        C  0.76949487  0.31251020  0.60524412     0.02100
H695        H  0.68439218  0.27537320  0.58961505     0.15100
H696        H  0.79697476  0.35083744  0.56932774     0.15100
C697        C  0.79845452  0.31457808  0.63246655     0.36800
C698        C  0.68308136  0.31134290  0.52591752     0.36700
N699        N  0.82163589  0.31614427  0.65432839    -0.43600
N700        N  0.65888476  0.31131385  0.50512490    -0.43600
C701        C  0.88927428  0.19867146  0.82450090     0.00000
C702        C  0.86308226  0.17000608  0.82296960    -0.11900
C703        C  0.83114985  0.17324297  0.80148743     0.02200
C704        C  0.82502881  0.20567346  0.78115504    -0.00100
C705        C  0.85291446  0.23267392  0.77972087    -0.11800
C706        C  0.88500210  0.22936592  0.80115808     0.02100
H707        H  0.86606733  0.14640630  0.84102242     0.15100
H708        H  0.84819870  0.25783826  0.76434953     0.15100
C709        C  0.91095806  0.25967778  0.80202466     0.36800
C710        C  0.80376642  0.14421740  0.80290717     0.36700
N711        N  0.93176682  0.28398294  0.80277504    -0.43600
N712        N  0.78197272  0.12080450  0.80398036    -0.43600
C713        C  0.74255108  0.44154800  0.04007711     0.00000
C714        C  0.72933174  0.43921910  0.07649723    -0.11900
C715        C  0.73218105  0.40650497  0.09673141     0.02200
C716        C  0.74791325  0.37483674  0.08031221    -0.00100
C717        C  0.75976487  0.37670750  0.04350966    -0.11800
C718        C  0.75791109  0.40963937  0.02360539     0.02100
H719        H  0.71721289  0.46327760  0.08956792     0.15100
H720        H  0.77256567  0.35281246  0.03078041     0.15100
C721        C  0.77495699  0.41033654  0.98763669     0.36800
C722        C  0.71874464  0.40635487  0.13421173     0.36700
N723        N  0.78911129  0.41086059  0.95905092    -0.43600
N724        N  0.70808403  0.40636139  0.16427792    -0.43600
C725        C  0.74190643  0.57542396  0.05010853     0.00000
C726        C  0.77539783  0.59369095  0.05722979    -0.11900
C727        C  0.78018427  0.61426575  0.08979881     0.02200
C728        C  0.75091465  0.61728365  0.11536790    -0.00100
C729        C  0.71650857  0.60190961  0.10662357    -0.11800
C730        C  0.71192662  0.58080018  0.07448547     0.02100
H731        H  0.79882660  0.58905014  0.03917755     0.15100
H732        H  0.69404510  0.60387628  0.12632143     0.15100
C733        C  0.67717740  0.56200448  0.06871607     0.36800
C734        C  0.81611208  0.62974112  0.09785398     0.36700
N735        N  0.64946559  0.54668881  0.06410753    -0.43600
N736        N  0.84485705  0.64212063  0.10450194    -0.43600
C737        C  0.75037819  0.57848711  0.84595032     0.00000
C738        C  0.77791095  0.57867234  0.81867463    -0.11900
C739        C  0.77365959  0.59913052  0.78638040     0.02200
C740        C  0.74163690  0.62033793  0.78118980    -0.00100
C741        C  0.71593525  0.62335389  0.81006786    -0.11800
C742        C  0.72013955  0.60265065  0.84247681     0.02100
H743        H  0.80108542  0.55988297  0.82098303     0.15100
H744        H  0.69101741  0.63941583  0.80603985     0.15100
C745        C  0.69114735  0.60342295  0.86978616     0.36800
C746        C  0.80077233  0.59524553  0.75744788     0.36700
N747        N  0.66798365  0.60401862  0.89176263    -0.43600
N748        N  0.82241013  0.59212326  0.73418111    -0.43600
C749        C  0.72891955  0.37533901  0.81205341     0.00000
C750        C  0.72917573  0.40869280  0.79247690    -0.11900
C751        C  0.73371917  0.44283778  0.81028637     0.02200
C752        C  0.73823938  0.44457801  0.84921778    -0.00100
C753        C  0.73849949  0.41114542  0.86873334    -0.11800
C754        C  0.73406876  0.37696211  0.85084051     0.02100
H755        H  0.72532409  0.40829362  0.76285398     0.15100
H756        H  0.74186851  0.41154940  0.89837683     0.15100
C757        C  0.73417506  0.34433593  0.87359381     0.36800
C758        C  0.73265199  0.47531297  0.78731244     0.36700
N759        N  0.73429960  0.31831125  0.89198549    -0.43600
N760        N  0.73176869  0.50117375  0.76870900    -0.43600
C761        C  0.32623280  0.71183668  0.28266692     0.00000
C762        C  0.35178712  0.74067434  0.28730648    -0.11900
C763        C  0.38307668  0.73613202  0.30949988     0.02200
C764        C  0.38877655  0.70238164  0.32777993    -0.00100
C765        C  0.36494938  0.67256189  0.32046809    -0.11800
C766        C  0.33397312  0.67696247  0.29775195     0.02100
H767        H  0.34573414  0.76766922  0.27601082     0.15100
H768        H  0.36901136  0.64662112  0.33470036     0.15100
C769        C  0.30890523  0.64628440  0.29271395     0.36800
C770        C  0.40661630  0.76764871  0.31638954     0.36700
N771        N  0.28889939  0.62165963  0.28845198    -0.43600
N772        N  0.42546019  0.79292230  0.32194139    -0.43600
C773        C  0.39330427  0.70786653  0.46214195     0.00000
C774        C  0.35435413  0.70652530  0.46205955    -0.11900
C775        C  0.33367257  0.71193797  0.49432768     0.02200
C776        C  0.35181933  0.71868936  0.52814000    -0.00100
C777        C  0.39067170  0.71912703  0.52846097    -0.11800
C778        C  0.41138555  0.71408855  0.49626059     0.02100
H779        H  0.33964270  0.70156086  0.43651943     0.15100
H780        H  0.40526436  0.72446024  0.55402131     0.15100
C781        C  0.45104177  0.71670294  0.49963801     0.36800
C782        C  0.29392374  0.71009728  0.49167169     0.36700
N783        N  0.48275274  0.71907550  0.50281446    -0.43600
N784        N  0.26207084  0.70865917  0.48950132    -0.43600
C785        C  0.62219670  0.68904042  0.53075235     0.00000
C786        C  0.63774592  0.71122468  0.50323470    -0.11900
C787        C  0.61896190  0.71789977  0.47025361     0.02200
C788        C  0.58395650  0.70151772  0.46385226    -0.00100
C789        C  0.56804534  0.67992756  0.49182562    -0.11800
C790        C  0.58673057  0.67359955  0.52502795     0.02100
H791        H  0.66469852  0.72363892  0.50763542     0.15100
H792        H  0.54147463  0.66679062  0.48726699     0.15100
C793        C  0.56984624  0.64929655  0.55170163     0.36800
C794        C  0.63609624  0.74242356  0.44398162     0.36700
N795        N  0.55633100  0.62969978  0.57295318    -0.43600
N796        N  0.64991368  0.76216091  0.42306551    -0.43600
C797        C  0.59227613  0.71011375  0.33018953     0.00000
C798        C  0.61876029  0.73852368  0.32905755    -0.11900
C799        C  0.65065015  0.73519898  0.30742981     0.02200
C800        C  0.65652238  0.70294444  0.28648126    -0.00100
C801        C  0.62843786  0.67611333  0.28479054    -0.11800
C802        C  0.59629684  0.67957229  0.30631875     0.02100
H803        H  0.61591415  0.76208948  0.34736510     0.15100
H804        H  0.63291639  0.65106893  0.26895958     0.15100
C805        C  0.56983255  0.64968828  0.30647810     0.36800
C806        C  0.67828400  0.76397100  0.30924559     0.36700
N807        N  0.54852785  0.62580502  0.30666100    -0.43600
N808        N  0.70037680  0.78709252  0.31058483    -0.43600
C809        C  0.09118917  0.71226906  0.43941427     0.00000
C810        C  0.07537044  0.69988554  0.40638643    -0.11900
C811        C  0.09339057  0.70439607  0.37247815     0.02200
C812        C  0.12894621  0.72096293  0.37105078    -0.00100
C813        C  0.14568112  0.73146262  0.40444845    -0.11800
C814        C  0.12734309  0.72744105  0.43825891     0.02100
H815        H  0.04879721  0.68623993  0.40713567     0.15100
H816        H  0.17293718  0.74395253  0.40420949     0.15100
C817        C  0.14616913  0.74035213  0.47096653     0.36800
C818        C  0.07434440  0.69168492  0.33984479     0.36700
N819        N  0.16140745  0.75054778  0.49712762    -0.43600
N820        N  0.05893001  0.68167807  0.31371967    -0.43600
C821        C  0.09003977  0.70377019  0.57307183     0.00000
C822        C  0.09464197  0.73587344  0.59437708    -0.11900
C823        C  0.12634679  0.74066862  0.61620706     0.02200
C824        C  0.15386307  0.71317102  0.61646360    -0.00100
C825        C  0.14710432  0.67949982  0.59868858    -0.11800
C826        C  0.11530561  0.67451095  0.57735234     0.02100
H827        H  0.07545789  0.75856118  0.59121190     0.15100
H828        H  0.16800860  0.65813026  0.59914381     0.15100
C829        C  0.11063665  0.64022196  0.55746835     0.36800
C830        C  0.13142079  0.77495889  0.63600820     0.36700
N831        N  0.10676763  0.61271840  0.54160234    -0.43600
N832        N  0.13539692  0.80228641  0.65216791    -0.43600
C833        C  0.82456963  0.70584080  0.60891173     0.00000
C834        C  0.82739896  0.73869157  0.58892079    -0.11900
C835        C  0.85854779  0.74605619  0.56722421     0.02200
C836        C  0.88781527  0.72033474  0.56544594    -0.00100
C837        C  0.88658579  0.68924087  0.58837247    -0.11800
C838        C  0.85502490  0.68161186  0.60971264     0.02100
H839        H  0.80402834  0.75732620  0.58804915     0.15100
H840        H  0.90853721  0.66900667  0.58675140     0.15100
C841        C  0.85302711  0.64705215  0.62925773     0.36800
C842        C  0.85849921  0.77877570  0.54459202     0.36700
N843        N  0.85145365  0.61922596  0.64473063    -0.43600
N844        N  0.85833939  0.80485684  0.52629177    -0.43600
C845        C  0.85522340  0.70417517  0.36678509     0.00000
C846        C  0.89400032  0.70357022  0.36603927    -0.11900
C847        C  0.91491599  0.70975215  0.39789297     0.02200
C848        C  0.89710740  0.71612953  0.43204784    -0.00100
C849        C  0.85821801  0.71905415  0.43211193    -0.11800
C850        C  0.83737879  0.71348857  0.40007795     0.02100
H851        H  0.90827003  0.69729700  0.34048771     0.15100
H852        H  0.84361507  0.72534557  0.45743988     0.15100
C853        C  0.79787524  0.71848095  0.40213636     0.36800
C854        C  0.95444210  0.70954058  0.39390197     0.36700
N855        N  0.76626952  0.72280602  0.40377677    -0.43600
N856        N  0.98605907  0.70978911  0.38965319    -0.43600
C857        C  0.47773888  0.04942822  0.69476772     0.00000
C858        C  0.47399272  0.08505366  0.67980668    -0.11900
C859        C  0.44182257  0.10581232  0.68520841     0.02200
C860        C  0.41229537  0.09097233  0.70578694    -0.00100
C861        C  0.41544008  0.05505608  0.71981974    -0.11800
C862        C  0.44776834  0.03443128  0.71492477     0.02100
H863        H  0.49641161  0.09694711  0.66391920     0.15100
H864        H  0.39299680  0.04353776  0.73597390     0.15100
C865        C  0.44999480  0.99911384  0.73306176     0.36800
C866        C  0.43943765  0.14183475  0.66849834     0.36700
N867        N  0.45173016  0.97097804  0.74792750    -0.43600
N868        N  0.43744568  0.17064904  0.65500971    -0.43600
C869        C  0.61128880  0.05834519  0.68219892     0.00000
C870        C  0.60942082  0.08774182  0.65714344    -0.11900
C871        C  0.63091469  0.11951337  0.66204481     0.02200
C872        C  0.65484329  0.12227467  0.69243858    -0.00100
C873        C  0.65998014  0.09133927  0.71506123    -0.11800
C874        C  0.63855126  0.05923411  0.70995641     0.02100
H875        H  0.58879881  0.08718196  0.63548773     0.15100
H876        H  0.67843350  0.09334203  0.73849271     0.15100
C877        C  0.64230596  0.02930073  0.73577302     0.36800
C878        C  0.62586598  0.15020488  0.63729677     0.36700
N879        N  0.64536456  0.00517744  0.75633192    -0.43600
N880        N  0.62200489  0.17487022  0.61753264    -0.43600
C881        C  0.61387858  0.85394644  0.70055769     0.00000
C882        C  0.61466798  0.82790006  0.72913574    -0.11900
C883        C  0.63511209  0.79532133  0.72574825     0.02200
C884        C  0.65544894  0.78847754  0.69339943    -0.00100
C885        C  0.65766425  0.81605640  0.66638273    -0.11800
C886        C  0.63711557  0.84875973  0.66977646     0.02100
H887        H  0.59657461  0.83145445  0.75271987     0.15100
H888        H  0.67314036  0.81080478  0.64131602     0.15100
C889        C  0.63709955  0.87454127  0.63957343     0.36800
C890        C  0.63243159  0.76795726  0.75444589     0.36700
N891        N  0.63707581  0.89524261  0.61538122    -0.43600
N892        N  0.63031132  0.74602520  0.77744534    -0.43600
C893        C  0.48037728  0.85876710  0.68915666     0.00000
C894        C  0.44753580  0.87616739  0.70000528    -0.11900
C895        C  0.41330418  0.85817253  0.69708208     0.02200
C896        C  0.41134937  0.82158304  0.68306170    -0.00100
C897        C  0.44432959  0.80422797  0.67239493    -0.11800
C898        C  0.47839172  0.82235924  0.67487661     0.02100
H899        H  0.44855411  0.90403030  0.71093548     0.15100
H900        H  0.44354310  0.77658150  0.66083061     0.15100
C901        C  0.51036779  0.80337428  0.66047391     0.36800
C902        C  0.38093832  0.87828719  0.70868539     0.36700
N903        N  0.53590091  0.78817788  0.64877149    -0.43600
N904        N  0.35508476  0.89463126  0.71781636    -0.43600
loop_ 
_geom_bond_atom_site_label_1 
_geom_bond_atom_site_label_2 
_geom_bond_distance 
_geom_bond_site_symmetry_2 
_ccdc_geom_bond_type 
C1            N2   1.353       .  A
C1            N6   1.367       .  A
C1          C881   1.478       .  S
N2            C3   1.349       .  A
C3            N4   1.356       .  A
C3          C893   1.488       .  S
N4            C5   1.363       .  A
C5            N6   1.368       .  A
C5            C9   1.480       .  S
C7            N8   1.366   1_545  A
C7           N12   1.357       .  A
C7          C869   1.481       .  S
N8            C9   1.367       .  A
C9           N10   1.362       .  A
N10          C11   1.356   1_565  A
C11          N12   1.352       .  A
C11         C857   1.492       .  S
C13          N14   1.353       .  A
C13          N18   1.366       .  A
C13         C836   1.482       .  S
N14          C15   1.352       .  A
C15          N16   1.360       .  A
C15         C848   1.499       .  S
N16          C17   1.365       .  A
C17          N18   1.369       .  A
C17          C21   1.485   1_655  S
C19          N20   1.364       .  A
C19          N24   1.354       .  A
C19         C821   1.476       .  S
N20          C21   1.368       .  A
C21          N22   1.366       .  A
N22          C23   1.361       .  A
C23          N24   1.350       .  A
C23         C809   1.494       .  S
C25          N26   1.366       .  A
C25          N30   1.355       .  A
C25         C797   1.480       .  S
N26          C27   1.367       .  A
C27          N28   1.363       .  A
C27          C33   1.480       .  S
N28          C29   1.357       .  A
C29          N30   1.352       .  A
C29         C788   1.489       .  S
C31          N32   1.365       .  A
C31          N36   1.357       .  A
C31         C764   1.475       .  S
N32          C33   1.364       .  A
C33          N34   1.361       .  A
N34          C35   1.357       .  A
C35          N36   1.355       .  A
C35         C773   1.500       .  S
C37          N38   1.353       .  A
C37          N42   1.364       .  A
C37         C737   1.476       .  S
N38          C39   1.349       .  A
C39          N40   1.361       .  A
C39         C752   1.504       .  S
N40          C41   1.367       .  A
C41          N42   1.366       .  A
C41          C47   1.483       .  S
C43          N44   1.355       .  A
C43          N48   1.368   1_554  A
C43         C725   1.479       .  S
N44          C45   1.352       .  A
C45          N46   1.356   1_554  A
C45         C713   1.488       .  S
N46          C47   1.360       .  A
C47          N48   1.369       .  A
O49          C65   1.274       .  A
O49         Zn55   2.026       .  S
C50         C749   1.501       .  S
C50          O66   1.279       .  A
C50          O63   1.272       .  A
O51          C64   1.278       .  A
O51         Cd58   2.098       .  S
O52          C70   1.275       .  A
O52         Cd61   2.065       .  S
O53          C67   1.274       .  A
O53         Cd57   2.075       .  S
O54          C65   1.274       .  A
O54         Cd57   2.069       .  S
Zn55         O66   2.049       .  S
Zn55         O68   2.028       .  S
Zn55         O60   1.949       .  S
O56          C67   1.276       .  A
O56         Cd61   2.072       .  S
Cd57         O59   2.062       .  S
Cd57         O60   1.992       .  S
Cd58         O62   2.099       .  S
Cd58         O71   2.102       .  S
Cd58         O60   2.018       .  S
O59          C69   1.275       .  A
O60         Cd61   1.989       .  S
Cd61         O63   2.064       .  S
O62          C69   1.277       .  A
C64         C689   1.479       .  S
C64          O68   1.277       .  A
C65         C677   1.495       .  S
C67         C665   1.492       .  S
C69         C872   1.475       .  S
C70         C704   1.476       .  S
C70          O71   1.278       .  A
O72          C88   1.274       .  A
O72         Zn78   2.023       .  S
C73         C776   1.493       .  S
C73          O89   1.277       .  A
C73          O86   1.273       .  A
O74          C87   1.277       .  A
O74         Cd81   2.090       .  S
O75          C93   1.275       .  A
O75         Cd84   2.063       .  S
O76          C90   1.272       .  A
O76         Cd80   2.063       .  S
O77          C88   1.274       .  A
O77         Cd80   2.070       .  S
Zn78         O89   2.039       .  S
Zn78         O91   2.020       .  S
Zn78         O83   1.935       .  S
O79          C90   1.277       .  A
O79         Cd84   2.075       .  S
Cd80         O82   2.052       .  S
Cd80         O83   1.986       .  S
Cd81         O85   2.093       .  S
Cd81         O94   2.105       .  S
Cd81         O83   2.012       .  S
O82          C92   1.274       .  A
O83         Cd84   1.984       .  S
Cd84         O86   2.051       .  S
O85          C92   1.278       .  A
C87         C824   1.474       .  S
C87          O91   1.277       .  A
C88         C629   1.497       .  S
C90         C896   1.493       .  S
C92         C653   1.469       .  S
C93         C641   1.478       .  S
C93          O94   1.279       .  A
C95          N96   1.368       .  A
C95         N100   1.357       .  A
C95         C605   1.478       .  S
N96          C97   1.367       .  A
C97          N98   1.361       .  A
C97         C105   1.482       .  S
N98          C99   1.355       .  A
C99         N100   1.353       .  A
C99         C620   1.497   1_455  S
C101        N102   1.354       .  A
C101        N106   1.369       .  A
C101        C581   1.486       .  S
N102        C103   1.350       .  A
C103        N104   1.354       .  A
C103        C596   1.493   1_455  S
N104        C105   1.363       .  A
C105        N106   1.370       .  A
O107        C123   1.274       .  A
O107       Zn113   2.024       .  S
C108        C557   1.498       .  S
C108        O124   1.278       .  A
C108        O121   1.273       .  A
O109        C122   1.278       .  A
O109       Cd116   2.097       .  S
O110        C128   1.275       .  A
O110       Cd119   2.065       .  S
O111        C125   1.273       .  A
O111       Cd115   2.057       .  S
O112        C123   1.273       .  A
O112       Cd115   2.065       .  S
Zn113       O124   2.043       .  S
Zn113       O126   2.016       .  S
Zn113       O118   1.944       .  S
O114        C125   1.276       .  A
O114       Cd119   2.077       .  S
Cd115       O117   2.055       .  S
Cd115       O118   1.990       .  S
Cd116       O120   2.111       .  S
Cd116       O129   2.109       .  S
Cd116       O118   2.018       .  S
O117        C127   1.274       .  A
O118       Cd119   1.990       .  S
Cd119       O121   2.067       .  S
O120        C127   1.279       .  A
C122        C728   1.477       .  S
C122        O126   1.276       .  A
C123        C617   1.491       .  S
C125        C845   1.487       .  S
C127        C572   1.478       .  S
C128        C800   1.479       .  S
C128        O129   1.279       .  A
C130        N131   1.355       .  A
C130        N135   1.366       .  A
C130        C701   1.477       .  S
N131        C132   1.352       .  A
C132        N133   1.357       .  A
C132        C545   1.495       .  S
N133        C134   1.363       .  A
C134        N135   1.367       .  A
C134        C138   1.483   1_655  S
C136        N137   1.367       .  A
C136        N141   1.355       .  A
C136        C533   1.479       .  S
N137        C138   1.368       .  A
C138        N139   1.362       .  A
N139        C140   1.357       .  A
C140        N141   1.352       .  A
C140        C524   1.491       .  S
O142        C158   1.274       .  A
O142       Zn148   2.018       .  S
C143        C548   1.488       .  S
C143        O159   1.277       .  A
C143        O156   1.272       .  A
O144        C157   1.278       .  A
O144       Cd151   2.096       .  S
O145        C163   1.274       .  A
O145       Cd154   2.052       .  S
O146        C160   1.273       .  A
O146       Cd150   2.067       .  S
O147        C158   1.274       .  A
O147       Cd150   2.066       .  S
Zn148       O159   2.041       .  S
Zn148       O161   2.009       .  S
Zn148       O153   1.936       .  S
O149        C160   1.275       .  A
O149       Cd154   2.066       .  S
Cd150       O152   2.055       .  S
Cd150       O153   1.989       .  S
Cd151       O155   2.099       .  S
Cd151       O164   2.114       .  S
Cd151       O153   2.015       .  S
O152        C162   1.274       .  A
O153       Cd154   1.976       .  S
Cd154       O156   2.048       .  S
O155        C162   1.279       .  A
C157        C485   1.473       .  S
C157        O161   1.275       .  A
C158        C716   1.484       .  S
C160        C593   1.485       .  S
C162        C512   1.473       .  S
C163        C497   1.483       .  S
C163        O164   1.280       .  A
C165        N166   1.355   1_554  A
C165        N170   1.366       .  A
C165        C461   1.485       .  S
N166        C167   1.352       .  A
C167        N168   1.357       .  A
C167        C476   1.497       .  S
N168        C169   1.363   1_556  A
C169        N170   1.369       .  A
C169        C175   1.481       .  S
C171        N172   1.354       .  A
C171        N176   1.366       .  A
C171        C488   1.476       .  S
N172        C173   1.350   1_554  A
C173        N174   1.357       .  A
C173        C668   1.485       .  S
N174        C175   1.364   1_556  A
C175        N176   1.367       .  A
C177        N178   1.352       .  A
C177        N182   1.361       .  A
C177        C656   1.471       .  S
N178        C179   1.351       .  A
C179        N180   1.362       .  A
C179        C449   1.493       .  S
N180        C181   1.368       .  A
C181        N182   1.364       .  A
C181        C185   1.481       .  S
C183        N184   1.365   1_554  A
C183        N188   1.354       .  A
C183        C425   1.478       .  S
N184        C185   1.368       .  A
C185        N186   1.360       .  A
N186        C187   1.358   1_556  A
C187        N188   1.353       .  A
C187        C440   1.490       .  S
O189        C205   1.273       .  A
O189       Zn195   2.018       .  S
C190        C452   1.495       .  S
C190        O206   1.278       .  A
C190        O203   1.272       .  A
O191        C204   1.278       .  A
O191       Cd198   2.102       .  S
O192        C210   1.274       .  A
O192       Cd201   2.058       .  S
O193        C207   1.276       .  A
O193       Cd197   2.086       .  S
O194        C205   1.276       .  A
O194       Cd197   2.080       .  S
Zn195       O206   2.040       .  S
Zn195       O208   2.026       .  S
Zn195       O200   1.941       .  S
O196        C207   1.274       .  A
O196       Cd201   2.065       .  S
Cd197       O199   2.057       .  S
Cd197       O200   1.999       .  S
Cd198       O202   2.108       .  S
Cd198       O211   2.112       .  S
Cd198       O200   2.018       .  S
O199        C209   1.275       .  A
O200       Cd201   1.983       .  S
Cd201       O203   2.061       .  S
O202        C209   1.280       .  A
C204        C416   1.479       .  S
C204        O208   1.277       .  A
C205        C860   1.483       .  S
C207        C473   1.499       .  S
C209        C404   1.477       .  S
C210        C536   1.479       .  S
C210        O211   1.280       .  A
C212        N213   1.353       .  A
C212        N217   1.364       .  A
C212        C389   1.476       .  S
N213        C214   1.352   1_545  A
C214        N215   1.359       .  A
C214        C377   1.481       .  S
N215        C216   1.364   1_565  A
C216        N217   1.368       .  A
C216        C220   1.482       .  S
C218        N219   1.363       .  A
C218        N223   1.353       .  A
C218        C413   1.479       .  S
N219        C220   1.367       .  A
C220        N221   1.366   1_545  A
N221        C222   1.361       .  A
C222        N223   1.353   1_565  A
C222        C632   1.500       .  S
O224        C240   1.273       .  A
O224       Zn230   2.011       .  S
C225        C521   1.485       .  S
C225        O241   1.276       .  A
C225        O238   1.272       .  A
O226        C239   1.279       .  A
O226       Cd233   2.108       .  S
O227        C245   1.275       .  A
O227       Cd236   2.061       .  S
O228        C242   1.275       .  A
O228       Cd232   2.087       .  S
O229        C240   1.277       .  A
O229       Cd232   2.083       .  S
Zn230       O241   2.037       .  S
Zn230       O243   2.017       .  S
Zn230       O235   1.939       .  S
O231        C242   1.276       .  A
O231       Cd236   2.069       .  S
Cd232       O234   2.061       .  S
Cd232       O235   2.000       .  S
Cd233       O237   2.114       .  S
Cd233       O246   2.117       .  S
Cd233       O235   2.019       .  S
O234        C244   1.276       .  A
O235       Cd236   1.984       .  S
Cd236       O238   2.058       .  S
O237        C244   1.281       .  A
C239        C464   1.480       .  S
C239        O243   1.275       .  A
C240        C437   1.487       .  S
C242        C365   1.494       .  S
C244        C392   1.481       .  S
C245        C584   1.482       .  S
C245        O246   1.281       .  A
C247        N248   1.367       .  A
C247        N252   1.355       .  A
C247        C569   1.485       .  S
N248        C249   1.368       .  A
C249        N250   1.362       .  A
C249        C257   1.481       .  S
N250        C251   1.356       .  A
C251        N252   1.353       .  A
C251        C353   1.496   1_655  S
C253        N254   1.355       .  A
C253        N258   1.365   1_545  A
C253        C500   1.477       .  S
N254        C255   1.353       .  A
C255        N256   1.357   1_545  A
C255        C368   1.493   1_655  S
N256        C257   1.364       .  A
C257        N258   1.367       .  A
O259        C275   1.273       .  A
O259       Zn265   2.010       .  S
C260        C380   1.485       .  S
C260        O276   1.275       .  A
C260        O273   1.273       .  A
O261        C274   1.280       .  A
O261       Cd268   2.116       .  S
O262        C280   1.274       .  A
O262       Cd271   2.056       .  S
O263        C277   1.273       .  A
O263       Cd267   2.066       .  S
O264        C275   1.275       .  A
O264       Cd267   2.075       .  S
Zn265       O276   2.021       .  S
Zn265       O278   2.004       .  S
Zn265       O270   1.936       .  S
O266        C277   1.277       .  A
O266       Cd271   2.085       .  S
Cd267       O269   2.061       .  S
Cd267       O270   1.987       .  S
Cd268       O272   2.104       .  S
Cd268       O281   2.100       .  S
Cd268       O270   2.023       .  S
O269        C279   1.275       .  A
O270       Cd271   1.993       .  S
Cd271       O273   2.060       .  S
O272        C279   1.279       .  A
C274        C428   1.486       .  S
C274        O278   1.274       .  A
C275        C356   1.495       .  S
C277        C812   1.497       .  S
C279        C608   1.476       .  S
C280        C761   1.473       .  S
C280        O281   1.278       .  A
C282        N283   1.365       .  A
C282        N287   1.352       .  A
C282        C401   1.481       .  S
N283        C284   1.368       .  A
C284        N285   1.367       .  A
C284        C292   1.482       .  S
N285        C286   1.359       .  A
C286        N287   1.350       .  A
C286        C680   1.491       .  S
C288        N289   1.354       .  A
C288        N293   1.366       .  A
C288        C644   1.480       .  S
N289        C290   1.351       .  A
C290        N291   1.358       .  A
C290        C344   1.492       .  S
N291        C292   1.363       .  A
C292        N293   1.369       .  A
C294        N295   1.364       .  A
C294        N299   1.355       .  A
C294        C509   1.474       .  S
N295        C296   1.365       .  A
C296        N297   1.364       .  A
C296        C302   1.483       .  S
N297        C298   1.361       .  A
C298        N299   1.352       .  A
C298        C560   1.503       .  S
C300        N301   1.366       .  A
C300        N305   1.352       .  A
C300        C692   1.482       .  S
N301        C302   1.369       .  A
C302        N303   1.365       .  A
N303        C304   1.358       .  A
C304        N305   1.352       .  A
C304        C332   1.492       .  S
O306        C322   1.273       .  A
O306       Zn312   2.019       .  S
C307        C341   1.495       .  S
C307        O323   1.276       .  A
C307        O320   1.272       .  A
O308        C321   1.277       .  A
O308       Cd315   2.096       .  S
O309        C327   1.275       .  A
O309       Cd318   2.060       .  S
O310        C324   1.275       .  A
O310       Cd314   2.075       .  S
O311        C322   1.276       .  A
O311       Cd314   2.076       .  S
Zn312       O323   2.025       .  S
Zn312       O325   2.019       .  S
Zn312       O317   1.935       .  S
O313        C324   1.275       .  A
O313       Cd318   2.067       .  S
Cd314       O316   2.070       .  S
Cd314       O317   1.995       .  S
Cd315       O319   2.105       .  S
Cd315       O328   2.101       .  S
Cd315       O317   2.013       .  S
O316        C326   1.276       .  A
O317       Cd318   1.987       .  S
Cd318       O320   2.067       .  S
O319        C326   1.279       .  A
C321        C884   1.477       .  S
C321        O325   1.276       .  A
C322        C785   1.482       .  S
C324        C329   1.495       .  S
C326        C833   1.479       .  S
C327        C740   1.475       .  S
C327        O328   1.278       .  A
C329        C330   1.410       .  A
C329        C334   1.417       .  A
C330        C331   1.406       .  A
C330        H335   1.085       .  S
C331        C332   1.413       .  A
C331        C338   1.443       .  S
C332        C333   1.406       .  A
C333        C334   1.397       .  A
C333        H336   1.085       .  S
C334        C337   1.445       .  S
C337        N339   1.157       .  T
C338        N340   1.157       .  T
C341        C342   1.405       .  A
C341        C346   1.419       .  A
C342        C343   1.399       .  A
C342        H347   1.085       .  S
C343        C344   1.419       .  A
C343        C350   1.445       .  S
C344        C345   1.406       .  A
C345        C346   1.404       .  A
C345        H348   1.085       .  S
C346        C349   1.444       .  S
C349        N351   1.157       .  T
C350        N352   1.158       .  T
C353        C354   1.409       .  A
C353        C358   1.416       .  A
C354        C355   1.400       .  A
C354        H359   1.084   1_455  S
C355        C356   1.416       .  A
C355        C362   1.445       .  S
C356        C357   1.410       .  A
C357        C358   1.403       .  A
C357        H360   1.085       .  S
C358        C361   1.444       .  S
C361        N363   1.157       .  T
C362        N364   1.157       .  T
C365        C366   1.405       .  A
C365        C370   1.418       .  A
C366        C367   1.398       .  A
C366        H371   1.085       .  S
C367        C368   1.417       .  A
C367        C374   1.445   1_455  S
C368        C369   1.407       .  A
C369        C370   1.408       .  A
C369        H372   1.084       .  S
C370        C373   1.444       .  S
C373        N375   1.158       .  T
C374        N376   1.157       .  T
C377        C378   1.405       .  A
C377        C382   1.410       .  A
C378        C379   1.398       .  A
C378        H383   1.085       .  S
C379        C380   1.414       .  A
C379        C386   1.446       .  S
C380        C381   1.408       .  A
C381        C382   1.403       .  A
C381        H384   1.085       .  S
C382        C385   1.443       .  S
C385        N387   1.157       .  T
C386        N388   1.158       .  T
C389        C390   1.401       .  A
C389        C394   1.412       .  A
C390        C391   1.401       .  A
C390        H395   1.085       .  S
C391        C392   1.413       .  A
C391        C398   1.445       .  S
C392        C393   1.404       .  A
C393        C394   1.408       .  A
C393        H396   1.085       .  S
C394        C397   1.443       .  S
C397        N399   1.157       .  T
C398        N400   1.157       .  T
C401        C402   1.405       .  A
C401        C406   1.412       .  A
C402        C403   1.398       .  A
C402        H407   1.085       .  S
C403        C404   1.408       .  A
C403        C410   1.445       .  S
C404        C405   1.406       .  A
C405        C406   1.409       .  A
C405        H408   1.085       .  S
C406        C409   1.443       .  S
C409        N411   1.157       .  T
C410        N412   1.157       .  T
C413        C414   1.402       .  A
C413        C418   1.413       .  A
C414        C415   1.405       .  A
C414        H419   1.085       .  S
C415        C416   1.413       .  A
C415        C422   1.443       .  S
C416        C417   1.401       .  A
C417        C418   1.403       .  A
C417        H420   1.085       .  S
C418        C421   1.444       .  S
C421        N423   1.157       .  T
C422        N424   1.157       .  T
C425        C426   1.401       .  A
C425        C430   1.412       .  A
C426        C427   1.400       .  A
C426        H431   1.085       .  S
C427        C428   1.415       .  A
C427        C434   1.445       .  S
C428        C429   1.405       .  A
C429        C430   1.409       .  A
C429        H432   1.084       .  S
C430        C433   1.443       .  S
C433        N435   1.157       .  T
C434        N436   1.157       .  T
C437        C438   1.404       .  A
C437        C442   1.416       .  A
C438        C439   1.403   1_545  A
C438        H443   1.085       .  S
C439        C440   1.418       .  A
C439        C446   1.445       .  S
C440        C441   1.405   1_565  A
C441        C442   1.399       .  A
C441        H444   1.085   1_544  S
C442        C445   1.445       .  S
C445        N447   1.157       .  T
C446        N448   1.158       .  T
C449        C450   1.404   1_565  A
C449        C454   1.419       .  A
C450        C451   1.406       .  A
C450        H455   1.085       .  S
C451        C452   1.420       .  A
C451        C458   1.444       .  S
C452        C453   1.404       .  A
C453        C454   1.400   1_545  A
C453        H456   1.085       .  S
C454        C457   1.445       .  S
C457        N459   1.157       .  T
C458        N460   1.157       .  T
C461        C462   1.405       .  A
C461        C466   1.415       .  A
C462        C463   1.409       .  A
C462        H467   1.085       .  S
C463        C464   1.413       .  A
C463        C470   1.443       .  S
C464        C465   1.400       .  A
C465        C466   1.401       .  A
C465        H468   1.085       .  S
C466        C469   1.445       .  S
C469        N471   1.157       .  T
C470        N472   1.157       .  T
C473        C474   1.411       .  A
C473        C478   1.418       .  A
C474        C475   1.407       .  A
C474        H479   1.084       .  S
C475        C476   1.416       .  A
C475        C482   1.444       .  S
C476        C477   1.407       .  A
C477        C478   1.398       .  A
C477        H480   1.085       .  S
C478        C481   1.445       .  S
C481        N483   1.158       .  T
C482        N484   1.158       .  T
C485        C486   1.404       .  A
C485        C490   1.407       .  A
C486        C487   1.405       .  A
C486        H491   1.085       .  S
C487        C488   1.410       .  A
C487        C494   1.444       .  S
C488        C489   1.406       .  A
C489        C490   1.400       .  A
C489        H492   1.085       .  S
C490        C493   1.444       .  S
C493        N495   1.157       .  T
C494        N496   1.157       .  T
C497        C498   1.405       .  A
C497        C502   1.413       .  A
C498        C499   1.410       .  A
C498        H503   1.084       .  S
C499        C500   1.412       .  A
C499        C506   1.443       .  S
C500        C501   1.400       .  A
C501        C502   1.398       .  A
C501        H504   1.086       .  S
C502        C505   1.446       .  S
C505        N507   1.157       .  T
C506        N508   1.157       .  T
C509        C510   1.401       .  A
C509        C514   1.412       .  A
C510        C511   1.401       .  A
C510        H515   1.094       .  S
C511        C512   1.411       .  A
C511        C518   1.444       .  S
C512        C513   1.400       .  A
C513        C514   1.402       .  A
C513        H516   1.092       .  S
C514        C517   1.443       .  S
C517        N519   1.157       .  T
C518        N520   1.157       .  T
C521        C522   1.406       .  A
C521        C526   1.411   1_554  A
C522        C523   1.401   1_554  A
C522        H527   1.085       .  S
C523        C524   1.415       .  A
C523        C530   1.445       .  S
C524        C525   1.409       .  A
C525        C526   1.402       .  A
C525        H528   1.085       .  S
C526        C529   1.444       .  S
C529        N531   1.157       .  T
C530        N532   1.157       .  T
C533        C534   1.405       .  A
C533        C538   1.411       .  A
C534        C535   1.401       .  A
C534        H539   1.085       .  S
C535        C536   1.408       .  A
C535        C542   1.444       .  S
C536        C537   1.406       .  A
C537        C538   1.407       .  A
C537        H540   1.085       .  S
C538        C541   1.444       .  S
C541        N543   1.157       .  T
C542        N544   1.157       .  T
C545        C546   1.412       .  A
C545        C550   1.416       .  A
C546        C547   1.403       .  A
C546        H551   1.084       .  S
C547        C548   1.411   1_556  A
C547        C554   1.444       .  S
C548        C549   1.407       .  A
C549        C550   1.400   1_554  A
C549        H552   1.085       .  S
C550        C553   1.444       .  S
C553        N555   1.157       .  T
C554        N556   1.157       .  T
C557        C558   1.406       .  A
C557        C562   1.419       .  A
C558        C559   1.405       .  A
C558        H563   1.085       .  S
C559        C560   1.423       .  A
C559        C566   1.445       .  S
C560        C561   1.405       .  A
C561        C562   1.401       .  A
C561        H564   1.082       .  S
C562        C565   1.445       .  S
C565        N567   1.157       .  T
C566        N568   1.158       .  T
C569        C570   1.407       .  A
C569        C574   1.412       .  A
C570        C571   1.400       .  A
C570        H575   1.085       .  S
C571        C572   1.408       .  A
C571        C578   1.445       .  S
C572        C573   1.405       .  A
C573        C574   1.408       .  A
C573        H576   1.085       .  S
C574        C577   1.443       .  S
C577        N579   1.157       .  T
C578        N580   1.157       .  T
C581        C582   1.406       .  A
C581        C586   1.412       .  A
C582        C583   1.399       .  A
C582        H587   1.086       .  S
C583        C584   1.408       .  A
C583        C590   1.445       .  S
C584        C585   1.408       .  A
C585        C586   1.412       .  A
C585        H588   1.085       .  S
C586        C589   1.443       .  S
C589        N591   1.157       .  T
C590        N592   1.157       .  T
C593        C594   1.407       .  A
C593        C598   1.411       .  A
C594        C595   1.403       .  A
C594        H599   1.085       .  S
C595        C596   1.417       .  A
C595        C602   1.444       .  S
C596        C597   1.409       .  A
C597        C598   1.398       .  A
C597        H600   1.084       .  S
C598        C601   1.445       .  S
C601        N603   1.157       .  T
C602        N604   1.158       .  T
C605        C606   1.404       .  A
C605        C610   1.413       .  A
C606        C607   1.407       .  A
C606        H611   1.085       .  S
C607        C608   1.413       .  A
C607        C614   1.444       .  S
C608        C609   1.399       .  A
C609        C610   1.400       .  A
C609        H612   1.085       .  S
C610        C613   1.444       .  S
C613        N615   1.157       .  T
C614        N616   1.157       .  T
C617        C618   1.405       .  A
C617        C622   1.415       .  A
C618        C619   1.402       .  A
C618        H623   1.085       .  S
C619        C620   1.418       .  A
C619        C626   1.444       .  S
C620        C621   1.409       .  A
C621        C622   1.402       .  A
C621        H624   1.084   1_655  S
C622        C625   1.445       .  S
C625        N627   1.157       .  T
C626        N628   1.157       .  T
C629        C630   1.410       .  A
C629        C634   1.416       .  A
C630        C631   1.405       .  A
C630        H635   1.084       .  S
C631        C632   1.416       .  A
C631        C638   1.443       .  S
C632        C633   1.411       .  A
C633        C634   1.400       .  A
C633        H636   1.084       .  S
C634        C637   1.446       .  S
C637        N639   1.158       .  T
C638        N640   1.157       .  T
C641        C642   1.400       .  A
C641        C646   1.413       .  A
C642        C643   1.402       .  A
C642        H647   1.085       .  S
C643        C644   1.413       .  A
C643        C650   1.444       .  S
C644        C645   1.403       .  A
C645        C646   1.406       .  A
C645        H648   1.085       .  S
C646        C649   1.444       .  S
C649        N651   1.157       .  T
C650        N652   1.157       .  T
C653        C654   1.403       .  A
C653        C658   1.407       .  A
C654        C655   1.402       .  A
C654        H659   1.085       .  S
C655        C656   1.410       .  A
C655        C662   1.444       .  S
C656        C657   1.404       .  A
C657        C658   1.399       .  A
C657        H660   1.085       .  S
C658        C661   1.444       .  S
C661        N663   1.157       .  T
C662        N664   1.157       .  T
C665        C666   1.406       .  A
C665        C670   1.418       .  A
C666        C667   1.398       .  A
C666        H671   1.085       .  S
C667        C668   1.415       .  A
C667        C674   1.446       .  S
C668        C669   1.404       .  A
C669        C670   1.405       .  A
C669        H672   1.084       .  S
C670        C673   1.444       .  S
C673        N675   1.157       .  T
C674        N676   1.158       .  T
C677        C678   1.412       .  A
C677        C682   1.417       .  A
C678        C679   1.407       .  A
C678        H683   1.085       .  S
C679        C680   1.412       .  A
C679        C686   1.444       .  S
C680        C681   1.406       .  A
C681        C682   1.397       .  A
C681        H684   1.085       .  S
C682        C685   1.445       .  S
C685        N687   1.158       .  T
C686        N688   1.157       .  T
C689        C690   1.406       .  A
C689        C694   1.407       .  A
C690        C691   1.408       .  A
C690        H695   1.085       .  S
C691        C692   1.412       .  A
C691        C698   1.443       .  S
C692        C693   1.406       .  A
C693        C694   1.401       .  A
C693        H696   1.085       .  S
C694        C697   1.444       .  S
C697        N699   1.157       .  T
C698        N700   1.157       .  T
C701        C702   1.405       .  A
C701        C706   1.410       .  A
C702        C703   1.401       .  A
C702        H707   1.085       .  S
C703        C704   1.408       .  A
C703        C710   1.444       .  S
C704        C705   1.405       .  A
C705        C706   1.405       .  A
C705        H708   1.085       .  S
C706        C709   1.443       .  S
C709        N711   1.157       .  T
C710        N712   1.157       .  T
C713        C714   1.409       .  A
C713        C718   1.415       .  A
C714        C715   1.401       .  A
C714        H719   1.085       .  S
C715        C716   1.412       .  A
C715        C722   1.445       .  S
C716        C717   1.405       .  A
C717        C718   1.399       .  A
C717        H720   1.085       .  S
C718        C721   1.444   1_554  S
C721        N723   1.157       .  T
C722        N724   1.157       .  T
C725        C726   1.403       .  A
C725        C730   1.414       .  A
C726        C727   1.406       .  A
C726        H731   1.085       .  S
C727        C728   1.413       .  A
C727        C734   1.445       .  S
C728        C729   1.399       .  A
C729        C730   1.402       .  A
C729        H732   1.085       .  S
C730        C733   1.444       .  S
C733        N735   1.157       .  T
C734        N736   1.157       .  T
C737        C738   1.405       .  A
C737        C742   1.411       .  A
C738        C739   1.399       .  A
C738        H743   1.086       .  S
C739        C740   1.407       .  A
C739        C746   1.444       .  S
C740        C741   1.406       .  A
C741        C742   1.407       .  A
C741        H744   1.086       .  S
C742        C745   1.444       .  S
C745        N747   1.157       .  T
C746        N748   1.157       .  T
C749        C750   1.404       .  A
C749        C754   1.422       .  A
C750        C751   1.403       .  A
C750        H755   1.085       .  S
C751        C752   1.424       .  A
C751        C758   1.446       .  S
C752        C753   1.406       .  A
C753        C754   1.405       .  A
C753        H756   1.083       .  S
C754        C757   1.445       .  S
C757        N759   1.158       .  T
C758        N760   1.158       .  T
C761        C762   1.403       .  A
C761        C766   1.408       .  A
C762        C763   1.402       .  A
C762        H767   1.085       .  S
C763        C764   1.410       .  A
C763        C770   1.444       .  S
C764        C765   1.405       .  A
C765        C766   1.403       .  A
C765        H768   1.085       .  S
C766        C769   1.444       .  S
C769        N771   1.157       .  T
C770        N772   1.157       .  T
C773        C774   1.411       .  A
C773        C778   1.419       .  A
C774        C775   1.403       .  A
C774        H779   1.084       .  S
C775        C776   1.413       .  A
C775        C782   1.444       .  S
C776        C777   1.407       .  A
C777        C778   1.400       .  A
C777        H780   1.085       .  S
C778        C781   1.444       .  S
C781        N783   1.157       .  T
C782        N784   1.157       .  T
C785        C786   1.401       .  A
C785        C790   1.414       .  A
C786        C787   1.400       .  A
C786        H791   1.085       .  S
C787        C788   1.417       .  A
C787        C794   1.444       .  S
C788        C789   1.406       .  A
C789        C790   1.403       .  A
C789        H792   1.085       .  S
C790        C793   1.445       .  S
C793        N795   1.158       .  T
C794        N796   1.157       .  T
C797        C798   1.405       .  A
C797        C802   1.411       .  A
C798        C799   1.401       .  A
C798        H803   1.085       .  S
C799        C800   1.408       .  A
C799        C806   1.444       .  S
C800        C801   1.406       .  A
C801        C802   1.407       .  A
C801        H804   1.085       .  S
C802        C805   1.443       .  S
C805        N807   1.157       .  T
C806        N808   1.157       .  T
C809        C810   1.401       .  A
C809        C814   1.419       .  A
C810        C811   1.403       .  A
C810        H815   1.081       .  S
C811        C812   1.420       .  A
C811        C818   1.445       .  S
C812        C813   1.407       .  A
C813        C814   1.403       .  A
C813        H816   1.085       .  S
C814        C817   1.445       .  S
C817        N819   1.158       .  T
C818        N820   1.157       .  T
C821        C822   1.404       .  A
C821        C826   1.412       .  A
C822        C823   1.406       .  A
C822        H827   1.085       .  S
C823        C824   1.412       .  A
C823        C830   1.444       .  S
C824        C825   1.399       .  A
C825        C826   1.400       .  A
C825        H828   1.085       .  S
C826        C829   1.444       .  S
C829        N831   1.157       .  T
C830        N832   1.157       .  T
C833        C834   1.400       .  A
C833        C838   1.413       .  A
C834        C835   1.401       .  A
C834        H839   1.085       .  S
C835        C836   1.415       .  A
C835        C842   1.445       .  S
C836        C837   1.404       .  A
C837        C838   1.407       .  A
C837        H840   1.085       .  S
C838        C841   1.443       .  S
C841        N843   1.157       .  T
C842        N844   1.157       .  T
C845        C846   1.405       .  A
C845        C850   1.410       .  A
C846        C847   1.400       .  A
C846        H851   1.085       .  S
C847        C848   1.416       .  A
C847        C854   1.439       .  S
C848        C849   1.413       .  A
C849        C850   1.401       .  A
C849        H852   1.084       .  S
C850        C853   1.445       .  S
C853        N855   1.157       .  T
C854        N856   1.155       .  T
C857        C858   1.409       .  A
C857        C862   1.416       .  A
C858        C859   1.402       .  A
C858        H863   1.084       .  S
C859        C860   1.410       .  A
C859        C866   1.444       .  S
C860        C861   1.404       .  A
C861        C862   1.402       .  A
C861        H864   1.085       .  S
C862        C865   1.444   1_545  S
C865        N867   1.157       .  T
C866        N868   1.157       .  T
C869        C870   1.405       .  A
C869        C874   1.412       .  A
C870        C871   1.398       .  A
C870        H875   1.085       .  S
C871        C872   1.407       .  A
C871        C878   1.445       .  S
C872        C873   1.405       .  A
C873        C874   1.408       .  A
C873        H876   1.085       .  S
C874        C877   1.443       .  S
C877        N879   1.157       .  T
C878        N880   1.157       .  T
C881        C882   1.406       .  A
C881        C886   1.411       .  A
C882        C883   1.401       .  A
C882        H887   1.085       .  S
C883        C884   1.407       .  A
C883        C890   1.444       .  S
C884        C885   1.405       .  A
C885        C886   1.406       .  A
C885        H888   1.085       .  S
C886        C889   1.443       .  S
C889        N891   1.157       .  T
C890        N892   1.157       .  T
C893        C894   1.404       .  A
C893        C898   1.417       .  A
C894        C895   1.403       .  A
C894        H899   1.084       .  S
C895        C896   1.420       .  A
C895        C902   1.444       .  S
C896        C897   1.405       .  A
C897        C898   1.398       .  A
C897        H900   1.085       .  S
C898        C901   1.446       .  S
C901        N903   1.158       .  T
C902        N904   1.157       .  T
