geometry optimzed in LAMMPS
_audit_creation_date              2020-11-30 
_audit_creation_method            'lammps2cif' 
_symmetry_space_group_name_H-M    'P1' 
_symmetry_Int_Tables_number       1 
_symmetry_cell_setting            triclinic 
loop_ 
_symmetry_equiv_pos_as_xyz 
  x,y,z 
_cell_length_a                    35.6471217 
_cell_length_b                    33.54788053695956 
_cell_length_c                    34.21822007673169 
_cell_angle_alpha                 90.70838516025358 
_cell_angle_beta                  89.89720900038077 
_cell_angle_gamma                 90.2521379138354 
loop_ 
_atom_site_label 
_atom_site_type_symbol 
_atom_site_fract_x 
_atom_site_fract_y 
_atom_site_fract_z 
_atom_site_charge 
O1          O  0.44714713  0.48829288  0.07828502    -0.79700
O2          O  0.52499692  0.48466859  0.42425169    -0.79700
O3          O  0.45293057  0.43038306  0.46249323    -0.79700
O4          O  0.57527971  0.49052339  0.03718370    -0.79600
O5          O  0.45292262  0.47113067  0.41283490    -0.79800
O6          O  0.52201775  0.48267677  0.06967854    -0.79700
O7          O  0.53183171  0.45045955  0.47843975    -0.79700
O8          O  0.45128529  0.43693697  0.03925822    -0.79700
C9          C  0.44564782  0.45100253  0.07301573     1.10000
C10         C  0.53612241  0.45351122  0.44181554     1.09900
C11         C  0.44995541  0.43616766  0.42655413     1.10000
C12         C  0.55813477  0.47812225  0.06701315     1.09900
O13         O  0.49137545  0.55320840  0.09046079    -0.79700
O14         O  0.43413728  0.54950042  0.44417120    -0.79700
O15         O  0.40078487  0.50411762  0.02597214    -0.79700
O16         O  0.55647268  0.53054295  0.47018571    -0.79700
O17         O  0.50841690  0.56587363  0.45326083    -0.79700
O18         O  0.43920465  0.55620053  0.03056175    -0.79700
O19         O  0.53050807  0.55477503  0.04019149    -0.79600
O20         O  0.39956177  0.49568825  0.45242417    -0.79700
Co21       Co  0.48100135  0.52169412  0.04575658     1.51500
Co22       Co  0.47985252  0.51836472  0.43670832     1.51700
Co23       Co  0.42837660  0.46889449  0.49631014     1.51600
Co24       Co  0.52978593  0.49887661  0.01127461     1.51500
O25         O  0.47754514  0.49925855  0.99213547    -1.41600
C26         C  0.52066570  0.56735561  0.07464600     1.10000
C27         C  0.40333547  0.53132851  0.44036916     1.10000
C28         C  0.40633744  0.54133888  0.03141027     1.10000
C29         C  0.54331236  0.56102831  0.45394646     1.10000
O30         O  0.56045430  0.96392409  0.05263566    -0.79700
O31         O  0.53421141  0.03147063  0.40655446    -0.79700
O32         O  0.52851815  0.92460747  0.47073551    -0.79700
O33         O  0.52260808  0.08984538  0.02439123    -0.79600
O34         O  0.56085965  0.98043096  0.46154906    -0.79800
O35         O  0.56184018  0.04291553  0.03945662    -0.79700
O36         O  0.54115466  0.06831011  0.45952747    -0.79700
O37         O  0.51848594  0.91697730  0.04488006    -0.79700
C38         C  0.55015627  0.92850985  0.05776538     1.10000
C39         C  0.55014962  0.06056075  0.42344437     1.09900
C40         C  0.55840344  0.94273460  0.45935633     1.10000
C41         C  0.55415750  0.07944939  0.03878192     1.09900
O42         O  0.48594462  0.04994874  0.07260630    -0.79700
O43         O  0.49302524  0.96694599  0.42133144    -0.79700
O44         O  0.44666963  0.95465425  0.03620954    -0.79700
O45         O  0.47072036  0.10090923  0.46650749    -0.79700
O46         O  0.46518358  0.04116057  0.43938156    -0.79700
O47         O  0.48338275  0.97132223  0.08543610    -0.79700
O48         O  0.44901981  0.04998783  0.02143624    -0.79600
O49         O  0.44990862  0.95534394  0.46407916    -0.79700
Co50       Co  0.52290994  0.00654299  0.05898131     1.51500
Co51       Co  0.51492223  0.01129791  0.45401217     1.51700
Co52       Co  0.48727707  0.93984188  0.00082889     1.51600
Co53       Co  0.49325193  0.05344894  0.98645905     1.51500
O54         O  0.50538621  0.99732721  0.00320309    -1.41600
C55         C  0.45379329  0.05597775  0.05774736     1.10000
C56         C  0.46083201  0.95384868  0.42927964     1.10000
C57         C  0.45110000  0.96100612  0.07231891     1.10000
C58         C  0.45506632  0.07821372  0.44121656     1.10000
O59         O  0.95298013  0.54903037  0.04578519    -0.79700
O60         O  0.09496106  0.52176114  0.45682835    -0.79700
O61         O  0.03436997  0.56251319  0.05402739    -0.79700
O62         O  0.97548411  0.56204695  0.45155913    -0.79600
O63         O  0.08608023  0.52783060  0.04407601    -0.79800
O64         O  0.92923534  0.52391441  0.46501408    -0.79700
O65         O  0.04821371  0.56101623  0.44137494    -0.79700
O66         O  0.97967843  0.53304742  0.10135130    -0.79700
C67         C  0.95630326  0.55430190  0.08331991     1.10000
C68         C  0.08269216  0.55367062  0.44166170     1.09900
C69         C  0.06943258  0.55850289  0.05835893     1.10000
C70         C  0.94112270  0.55537590  0.44887724     1.09900
O71         O  0.96115773  0.44577919  0.47342320    -0.79700
O72         O  0.05553531  0.44527046  0.03949957    -0.79700
O73         O  0.97039813  0.46267675  0.06255888    -0.79700
O74         O  0.04553972  0.48088213  0.40761389    -0.79700
O75         O  0.06173893  0.44194876  0.45580283    -0.79700
O76         O  0.91591805  0.47846954  0.03663426    -0.79700
O77         O  0.96963026  0.47882403  0.41906102    -0.79600
O78         O  0.04053885  0.48484319  0.08716554    -0.79700
Co79       Co  0.96052118  0.49659687  0.01195602     1.51500
Co80       Co  0.07042076  0.48653808  0.00224282     1.51700
Co81       Co  0.00237044  0.51408859  0.05437223     1.51600
Co82       Co  0.00987597  0.52007092  0.43378161     1.51500
O83         O  0.01565551  0.50435879  0.99741472    -1.41600
C84         C  0.95804434  0.44760468  0.43662524     1.10000
C85         C  0.05546223  0.45268456  0.07546564     1.10000
C86         C  0.93449297  0.45762661  0.06039431     1.10000
C87         C  0.05703211  0.44741968  0.41985790     1.10000
C88         C  0.25403253  0.24010183  0.28265058     0.45900
H89         H  0.25450079  0.23626919  0.31461858    -0.03100
C90         C  0.25056410  0.24737101  0.20736124     0.46000
H91         H  0.24857469  0.25025290  0.17515000    -0.03100
C92         C  0.28302644  0.26989093  0.26624802    -0.16800
C93         C  0.26351096  0.20101431  0.26030922    -0.16500
C94         C  0.21571778  0.25587469  0.26872901    -0.16900
C95         C  0.28130880  0.27332579  0.22603742    -0.16900
C96         C  0.26152398  0.20472503  0.22007879    -0.16500
C97         C  0.21431478  0.26026340  0.22883059    -0.16800
C98         C  0.74206314  0.28342140  0.21518651     0.45900
H99         H  0.74378748  0.29276497  0.18441977    -0.03100
C100        C  0.74132801  0.26468024  0.28828260     0.46000
H101        H  0.74037330  0.25687813  0.31973682    -0.03100
C102        C  0.71910803  0.31250257  0.24098175    -0.16800
C103        C  0.72376799  0.24194065  0.22168522    -0.16500
C104        C  0.78134223  0.28307931  0.23406695    -0.16900
C105        C  0.71853356  0.30195082  0.27943016    -0.16900
C106        C  0.72341589  0.23233420  0.26115550    -0.16500
C107        C  0.78137261  0.27455573  0.27345067    -0.16800
C108        C  0.25690047  0.75615411  0.20670375     0.45900
H109        H  0.24861392  0.75670190  0.17554266    -0.03100
C110        C  0.27464915  0.75434236  0.27990824     0.46000
H111        H  0.28250412  0.75397910  0.31131004    -0.03100
C112        C  0.28654912  0.72422386  0.21613333    -0.16800
C113        C  0.27402862  0.79595337  0.22166007    -0.16500
C114        C  0.22348399  0.74472945  0.23324662    -0.16900
C115        C  0.29598733  0.72345345  0.25509111    -0.16900
C116        C  0.28357104  0.79437506  0.26063850    -0.16500
C117        C  0.23286722  0.74390950  0.27255998    -0.16800
C118        C  0.74367970  0.74375207  0.29516842     0.45900
H119        H  0.74631172  0.74408288  0.32743954    -0.03100
C120        C  0.73780036  0.74569727  0.21999642     0.46000
H121        H  0.73580083  0.74803516  0.18784186    -0.03100
C122        C  0.71307796  0.71533970  0.27927543    -0.16800
C123        C  0.73178506  0.78498451  0.28028733    -0.16500
C124        C  0.77978711  0.73043732  0.27379925    -0.16900
C125        C  0.71006222  0.71590078  0.23885476    -0.16900
C126        C  0.72827975  0.78600792  0.24028186    -0.16500
C127        C  0.77693527  0.73156972  0.23356074    -0.16800
C128        C  0.17076540  0.65383299  0.19475989    -0.01500
C129        C  0.14959173  0.66961343  0.16351965     0.07100
C130        C  0.14878898  0.71136913  0.15961501    -0.07500
C131        C  0.17022582  0.73664270  0.18425858     0.04500
C132        C  0.19235686  0.72066430  0.21448676    -0.14700
C133        C  0.19113757  0.67921413  0.22009484    -0.08100
C134        C  0.12829639  0.64281894  0.13522747     0.05400
C135        C  0.10289771  0.61471241  0.15012159    -0.09200
C136        C  0.08413322  0.58725119  0.12563738     0.00400
C137        C  0.08998825  0.58728724  0.08468928     0.00300
C138        C  0.11488921  0.61579300  0.06939186    -0.12700
C139        C  0.13359897  0.64362878  0.09408635     0.00800
C140        C  0.05988420  0.55851937  0.14399398     0.40100
C141        C  0.15841451  0.67238804  0.07646959     0.36700
C142        C  0.17490480  0.61138550  0.19945672     0.36400
C143        C  0.16995799  0.77901277  0.17741335     0.37200
N144        N  0.04092036  0.53587976  0.15997314    -0.43600
N145        N  0.17820343  0.69560315  0.06238923    -0.44100
N146        N  0.16988719  0.81301191  0.17208897    -0.41400
N147        N  0.17840758  0.57736380  0.20313200    -0.42900
H148        H  0.20897384  0.66612752  0.24205792     0.13300
H149        H  0.13203619  0.72429021  0.13664087     0.09800
H150        H  0.09788595  0.61394179  0.18138411     0.10900
H151        H  0.11948791  0.61657976  0.03807558     0.16700
C152        C  0.11582860  0.62231732  0.36172167    -0.01500
C153        C  0.14769894  0.64135049  0.37824791     0.07100
C154        C  0.15887140  0.62988439  0.41612548    -0.07500
C155        C  0.13992789  0.59950147  0.43646843     0.04500
C156        C  0.10742051  0.58192964  0.42031731    -0.14700
C157        C  0.09575660  0.59390530  0.38306142    -0.08100
C158        C  0.17032941  0.67137876  0.35547606     0.05400
C159        C  0.15218894  0.70241674  0.33542276    -0.09200
C160        C  0.17176359  0.72708156  0.30917298     0.00400
C161        C  0.21065894  0.72198140  0.30331129     0.00300
C162        C  0.22919023  0.69408196  0.32677617    -0.12700
C163        C  0.20969996  0.66838815  0.35162731     0.00800
C164        C  0.15151869  0.75803774  0.28944709     0.40100
C165        C  0.23100882  0.63807568  0.37125390     0.36700
C166        C  0.10363585  0.63015530  0.32231323     0.36400
C167        C  0.15430335  0.58701489  0.47372268     0.37200
N168        N  0.13531682  0.78293511  0.27367229    -0.43600
N169        N  0.24813818  0.61398832  0.38718616    -0.44100
N170        N  0.16627857  0.57661720  0.50329332    -0.41400
N171        N  0.09383633  0.63650884  0.29077533    -0.42900
H172        H  0.07094828  0.58032542  0.37013972     0.13300
H173        H  0.18269580  0.64444222  0.42988780     0.09800
H174        H  0.12234336  0.70687418  0.33957495     0.10900
H175        H  0.25915839  0.69103355  0.32509560     0.16700
C176        C  0.12063159  0.29579464  0.30212932    -0.01500
C177        C  0.13102052  0.32449903  0.33047789     0.07100
C178        C  0.16805767  0.32522508  0.34377520    -0.07500
C179        C  0.19551751  0.30033098  0.32733249     0.04500
C180        C  0.18637599  0.27428461  0.29560249    -0.14700
C181        C  0.14807666  0.27078541  0.28532536    -0.08100
C182        C  0.10438286  0.35416143  0.34758871     0.05400
C183        C  0.08478568  0.34445206  0.38168411    -0.09200
C184        C  0.06639706  0.37396649  0.40384809     0.00400
C185        C  0.06805649  0.41448190  0.39241838     0.00300
C186        C  0.08482011  0.42349019  0.35638800    -0.12700
C187        C  0.10291972  0.39375036  0.33406111     0.00800
C188        C  0.04653047  0.36184426  0.43860565     0.40100
C189        C  0.12124802  0.40495719  0.29822886     0.36700
C190        C  0.08228043  0.29229062  0.28914080     0.36400
C191        C  0.23251439  0.30411743  0.34374864     0.37200
N192        N  0.03053075  0.35215438  0.46640071    -0.43600
N193        N  0.13566110  0.41441233  0.26947296    -0.44100
N194        N  0.26114769  0.30826513  0.35914694    -0.41400
N195        N  0.05147497  0.28938010  0.27884558    -0.42900
H196        H  0.13984252  0.24983559  0.26251510     0.13300
H197        H  0.17576251  0.34621154  0.36682441     0.09800
H198        H  0.08530366  0.31400617  0.39197300     0.10900
H199        H  0.08584817  0.45415991  0.34678441     0.16700
C200        C  0.12416505  0.37388324  0.10750425    -0.01500
C201        C  0.11478326  0.36796735  0.14700444     0.07100
C202        C  0.08550316  0.39049430  0.16370190    -0.07500
C203        C  0.06530337  0.41815299  0.14130797     0.04500
C204        C  0.07513562  0.42440745  0.10178184    -0.14700
C205        C  0.10456699  0.40174294  0.08551130    -0.08100
C206        C  0.13661085  0.33950719  0.17113459     0.05400
C207        C  0.16262358  0.35480509  0.19794908    -0.09200
C208        C  0.18729417  0.32964615  0.21767387     0.00400
C209        C  0.18716017  0.28799400  0.20967805     0.00300
C210        C  0.16040072  0.27257697  0.18343240    -0.12700
C211        C  0.13478235  0.29787033  0.16481002     0.00800
C212        C  0.21330561  0.34811749  0.24461962     0.40100
C213        C  0.10651301  0.28068222  0.13956138     0.36700
C214        C  0.15435317  0.35215879  0.08892130     0.36400
C215        C  0.03312867  0.43736350  0.15868923     0.37200
N216        N  0.23313508  0.36420274  0.26644336    -0.43600
N217        N  0.08347979  0.26721868  0.11953606    -0.44100
N218        N  0.00693710  0.45211556  0.17257038    -0.41400
N219        N  0.17841831  0.33472214  0.07386132    -0.42900
H220        H  0.11263436  0.40594135  0.05525155     0.13300
H221        H  0.07798618  0.38589084  0.19404200     0.09800
H222        H  0.16460495  0.38679776  0.20236149     0.10900
H223        H  0.15927616  0.24072062  0.17781489     0.16700
C224        C  0.85789005  0.40671877  0.11772507    -0.01500
C225        C  0.87703044  0.37437362  0.13426720     0.07100
C226        C  0.91468244  0.36783289  0.12469111    -0.07500
C227        C  0.93386242  0.39387384  0.09990154     0.04500
C228        C  0.91526441  0.42758726  0.08480039    -0.14700
C229        C  0.87709912  0.43309530  0.09347838    -0.08100
C230        C  0.85826922  0.34800764  0.16262325     0.05400
C231        C  0.84621594  0.31000676  0.15058251    -0.09200
C232        C  0.82334066  0.28700158  0.17492953     0.00400
C233        C  0.81267761  0.30190493  0.21207880     0.00300
C234        C  0.82718688  0.33872173  0.22500697    -0.12700
C235        C  0.84974317  0.36182369  0.20058748     0.00800
C236        C  0.80989342  0.24884907  0.16068094     0.40100
C237        C  0.86130291  0.40107494  0.21373709     0.36700
C238        C  0.81844357  0.41324969  0.12493613     0.36400
C239        C  0.97164525  0.38361345  0.08860441     0.37200
N240        N  0.79897654  0.21830729  0.14933189    -0.43600
N241        N  0.87012299  0.43280810  0.22381298    -0.44100
N242        N  0.00161434  0.37447146  0.07920121    -0.41400
N243        N  0.78678942  0.41854815  0.13031441    -0.42900
H244        H  0.86224032  0.45837977  0.08167314     0.13300
H245        H  0.92910310  0.34236565  0.13671615     0.09800
H246        H  0.85312692  0.29921004  0.12145544     0.10900
H247        H  0.81862455  0.35098522  0.25304724     0.16700
C248        C  0.82738444  0.33578248  0.35511384    -0.01500
C249        C  0.86616149  0.33329644  0.34646337     0.07100
C250        C  0.87738168  0.30601742  0.31704493    -0.07500
C251        C  0.85073369  0.28363936  0.29518453     0.04500
C252        C  0.81173268  0.28935909  0.30135878    -0.14700
C253        C  0.80102411  0.31404573  0.33294192    -0.08100
C254        C  0.89452350  0.35867027  0.36850629     0.05400
C255        C  0.89606939  0.35648926  0.40939383    -0.09200
C256        C  0.91767800  0.38340043  0.43194258     0.00400
C257        C  0.93837940  0.41454188  0.41389938     0.00300
C258        C  0.93884201  0.41486444  0.37267092    -0.12700
C259        C  0.91791045  0.38707829  0.35014775     0.00800
C260        C  0.91718287  0.37773188  0.47353870     0.40100
C261        C  0.92119699  0.38847860  0.30823601     0.36700
C262        C  0.81343245  0.36179310  0.38573278     0.36400
C263        C  0.86410397  0.25456580  0.26710184     0.37200
N264        N  0.91618776  0.37144292  0.50664409    -0.43600
N265        N  0.92506079  0.38930724  0.27469738    -0.44100
N266        N  0.87487712  0.23111994  0.24472058    -0.41400
N267        N  0.80211883  0.38235503  0.41042444    -0.42900
H268        H  0.77160412  0.31797784  0.33956819     0.13300
H269        H  0.90703617  0.30209928  0.31116427     0.09800
H270        H  0.87950857  0.33388803  0.42399342     0.10900
H271        H  0.95543255  0.43718529  0.35775242     0.16700
C272        C  0.83462327  0.64031879  0.30971146    -0.01500
C273        C  0.85175285  0.65536002  0.34420354     0.07100
C274        C  0.84887881  0.69653568  0.35229950    -0.07500
C275        C  0.82741137  0.72175323  0.32856293     0.04500
C276        C  0.80831612  0.70621478  0.29557116    -0.14700
C277        C  0.81283548  0.66546965  0.28622245    -0.08100
C278        C  0.87339904  0.62939797  0.37187294     0.05400
C279        C  0.91064699  0.63961302  0.38045342    -0.09200
C280        C  0.93235407  0.61717337  0.40631344     0.00400
C281        C  0.91720490  0.58252894  0.42441378     0.00300
C282        C  0.87943659  0.57290496  0.41660070    -0.12700
C283        C  0.85751926  0.59609005  0.39111379     0.00800
C284        C  0.97020732  0.63109768  0.41333522     0.40100
C285        C  0.81846369  0.58572605  0.38627104     0.36700
C286        C  0.83906830  0.59926019  0.29757580     0.36400
C287        C  0.82451639  0.76333706  0.33931629     0.37200
N288        N  0.00045480  0.64253133  0.41880519    -0.43600
N289        N  0.78715731  0.57725654  0.38253000    -0.44100
N290        N  0.82217472  0.79665157  0.34808684    -0.41400
N291        N  0.84252899  0.56635579  0.28772055    -0.42900
H292        H  0.79819988  0.65284518  0.26119838     0.13300
H293        H  0.86249008  0.70886472  0.37808546     0.09800
H294        H  0.92304661  0.66544981  0.36659474     0.10900
H295        H  0.86693332  0.54706238  0.43028262     0.16700
C296        C  0.87273278  0.69816116  0.19429601    -0.01500
C297        C  0.86298668  0.67196789  0.16339547     0.07100
C298        C  0.82531914  0.66876538  0.15265814    -0.07500
C299        C  0.79707438  0.68911609  0.17320652     0.04500
C300        C  0.80615437  0.71382785  0.20607503    -0.14700
C301        C  0.84460117  0.71917632  0.21480017    -0.08100
C302        C  0.89060344  0.64505077  0.14351562     0.05400
C303        C  0.90480248  0.61258459  0.16413887    -0.09200
C304        C  0.92622623  0.58296578  0.14532483     0.00400
C305        C  0.93444029  0.58568532  0.10480782     0.00300
C306        C  0.92070948  0.61871401  0.08440223    -0.12700
C307        C  0.89893938  0.64808285  0.10329565     0.00800
C308        C  0.93699033  0.54883626  0.16798306     0.40100
C309        C  0.88515296  0.68100240  0.08077953     0.36700
C310        C  0.91140168  0.70382792  0.20547742     0.36400
C311        C  0.75952591  0.68197898  0.15936689     0.37200
N312        N  0.94520998  0.52146715  0.18630953    -0.43600
N313        N  0.87406543  0.70741275  0.06275765    -0.44100
N314        N  0.73054150  0.67515373  0.14564242    -0.41400
N315        N  0.94244161  0.70846394  0.21434418    -0.42900
H316        H  0.85271817  0.73897195  0.23862252     0.13300
H317        H  0.81774718  0.64887246  0.12864670     0.09800
H318        H  0.89766406  0.60944029  0.19479146     0.10900
H319        H  0.92673272  0.62150756  0.05347848     0.16700
C320        C  0.61986125  0.08740882  0.34351893    -0.01500
C321        C  0.63311146  0.12517441  0.35548826     0.07100
C322        C  0.62011254  0.14154932  0.39096969    -0.07500
C323        C  0.59362099  0.12121302  0.41407622     0.04500
C324        C  0.57987513  0.08331577  0.40189436    -0.14700
C325        C  0.59386905  0.06685014  0.36664398    -0.08100
C326        C  0.65738638  0.14958159  0.32937280     0.05400
C327        C  0.64041264  0.17027361  0.29891414    -0.09200
C328        C  0.66122516  0.19558444  0.27470826     0.00400
C329        C  0.70055912  0.20003184  0.28017964     0.00300
C330        C  0.71762673  0.17787695  0.30994798    -0.12700
C331        C  0.69647634  0.15303388  0.33451438     0.00800
C332        C  0.64027116  0.21868287  0.24705147     0.40100
C333        C  0.71532166  0.13201379  0.36527549     0.36700
C334        C  0.63199277  0.06954466  0.30705070     0.36400
C335        C  0.57975424  0.14109210  0.44881415     0.37200
N336        N  0.62227741  0.23628467  0.22513423    -0.43600
N337        N  0.73052448  0.11522773  0.38994066    -0.44100
N338        N  0.56866018  0.15747912  0.47643394    -0.41400
N339        N  0.64166468  0.05534390  0.27775509    -0.42900
H340        H  0.58404494  0.03787901  0.35655078     0.13300
H341        H  0.62974723  0.17097086  0.39995511     0.09800
H342        H  0.61029521  0.16771763  0.29496496     0.10900
H343        H  0.74752449  0.18114907  0.31496437     0.16700
C344        C  0.64539931  0.11730373  0.08353718    -0.01500
C345        C  0.63331582  0.14850981  0.10855798     0.07100
C346        C  0.59540528  0.16023357  0.10652153    -0.07500
C347        C  0.56947730  0.14019214  0.08202055     0.04500
C348        C  0.58116618  0.10753069  0.05862095    -0.14700
C349        C  0.61949008  0.09712325  0.05933027    -0.08100
C350        C  0.65966270  0.17075082  0.13563645     0.05400
C351        C  0.66341082  0.21191601  0.13133484    -0.09200
C352        C  0.68516912  0.23531306  0.15706972     0.00400
C353        C  0.70442396  0.21774081  0.18913745     0.00300
C354        C  0.70253612  0.17572709  0.19160833    -0.12700
C355        C  0.67991425  0.15252162  0.16609861     0.00800
C356        C  0.68546834  0.27721168  0.14884695     0.40100
C357        C  0.67639652  0.11037296  0.17326006     0.36700
C358        C  0.68431167  0.10561701  0.08179342     0.36400
C359        C  0.53067208  0.15218295  0.08336690     0.37200
N360        N  0.68533729  0.31032035  0.13985570    -0.43600
N361        N  0.67363868  0.07656450  0.17901520    -0.44100
N362        N  0.49952328  0.16171924  0.08445933    -0.41400
N363        N  0.71547277  0.09613371  0.08051221    -0.42900
H364        H  0.62920135  0.07234398  0.04139420     0.13300
H365        H  0.58576143  0.18462227  0.12499516     0.09800
H366        H  0.64851568  0.22616545  0.10768057     0.10900
H367        H  0.71779168  0.16082643  0.21450223     0.16700
C368        C  0.35718945  0.09465489  0.08670073    -0.01500
C369        C  0.36245058  0.10659228  0.12591643     0.07100
C370        C  0.39732442  0.10023362  0.14350263    -0.07500
C371        C  0.42722484  0.08334802  0.12240793     0.04500
C372        C  0.42242063  0.07196975  0.08253459    -0.14700
C373        C  0.38680318  0.07721199  0.06556402    -0.08100
C374        C  0.33406030  0.13095702  0.14732086     0.05400
C375        C  0.30660438  0.11278145  0.17070434    -0.09200
C376        C  0.28124782  0.13594992  0.19295737     0.00400
C377        C  0.28348675  0.17810177  0.19244470     0.00300
C378        C  0.30970282  0.19567198  0.16695799    -0.12700
C379        C  0.33502770  0.17275737  0.14512377     0.00800
C380        C  0.25268878  0.11582769  0.21527037     0.40100
C381        C  0.36265650  0.19289627  0.12141074     0.36700
C382        C  0.32210691  0.10174252  0.06706304     0.36400
C383        C  0.46273316  0.07999179  0.14234978     0.37200
N384        N  0.22967977  0.09955562  0.23294185    -0.43600
N385        N  0.38491587  0.20890597  0.10250953    -0.44100
N386        N  0.49118207  0.07762003  0.15839257    -0.41400
N387        N  0.29402346  0.10763575  0.05129117    -0.42900
H388        H  0.38221683  0.06872772  0.03526488     0.13300
H389        H  0.40163823  0.11007644  0.17349379     0.09800
H390        H  0.30523278  0.08052388  0.17186111     0.10900
H391        H  0.31162502  0.22757008  0.16467883     0.16700
C392        C  0.35456919  0.15700014  0.29827814    -0.01500
C393        C  0.34206657  0.13424716  0.33027667     0.07100
C394        C  0.30319104  0.12893520  0.33552627    -0.07500
C395        C  0.27710857  0.14815680  0.31118244     0.04500
C396        C  0.28961008  0.17243651  0.28029383    -0.14700
C397        C  0.32853194  0.17539792  0.27349090    -0.08100
C398        C  0.36925501  0.11839776  0.35977846     0.05400
C399        C  0.37611116  0.13999724  0.39456940    -0.09200
C400        C  0.40346973  0.12767966  0.42159738     0.00400
C401        C  0.42487228  0.09284122  0.41418299     0.00300
C402        C  0.41735063  0.07103013  0.37949580    -0.12700
C403        C  0.39003056  0.08342442  0.35260822     0.00800
C404        C  0.40845841  0.15113901  0.45687435     0.40100
C405        C  0.38391769  0.06001655  0.31750664     0.36700
C406        C  0.39404319  0.16463380  0.29237091     0.36400
C407        C  0.23759758  0.14455185  0.31965860     0.37200
N408        N  0.41242534  0.16993373  0.48517268    -0.43600
N409        N  0.37882408  0.04143671  0.28927941    -0.44100
N410        N  0.20581565  0.14194601  0.32613008    -0.41400
N411        N  0.42571521  0.17089832  0.28801625    -0.42900
H412        H  0.33875525  0.19476399  0.25066994     0.13300
H413        H  0.29320505  0.11145096  0.35989193     0.09800
H414        H  0.36035589  0.16696121  0.40045632     0.10900
H415        H  0.43343785  0.04445661  0.37281932     0.16700
C416        C  0.63560086  0.87778112  0.10055939    -0.01500
C417        C  0.62282592  0.86735208  0.13854670     0.07100
C418        C  0.58454901  0.87369579  0.14707102    -0.07500
C419        C  0.55970435  0.88863324  0.11906930     0.04500
C420        C  0.57346033  0.90278817  0.08316187    -0.14700
C421        C  0.61148458  0.89699889  0.07428827    -0.08100
C422        C  0.64854611  0.84978127  0.16917395     0.05400
C423        C  0.68564441  0.86437752  0.17358847    -0.09200
C424        C  0.71184195  0.84527719  0.19776489     0.00400
C425        C  0.70062678  0.81283269  0.22064345     0.00300
C426        C  0.66263146  0.80182690  0.22046451    -0.12700
C427        C  0.63715418  0.81830755  0.19405178     0.00800
C428        C  0.75030461  0.85874277  0.19797681     0.40100
C429        C  0.60076488  0.79936520  0.19124658     0.36700
C430        C  0.67286037  0.86812669  0.08695447     0.36400
C431        C  0.52012732  0.88847635  0.12782954     0.37200
N432        N  0.78121888  0.86940004  0.19822063    -0.43600
N433        N  0.57172730  0.78387702  0.18940816    -0.44100
N434        N  0.48837133  0.88664463  0.13458642    -0.41400
N435        N  0.70267862  0.86035458  0.07590037    -0.42900
H436        H  0.62225039  0.90698112  0.04637714     0.13300
H437        H  0.57362040  0.86724667  0.17583270     0.09800
H438        H  0.69474429  0.89005888  0.15715335     0.10900
H439        H  0.65353769  0.77703414  0.23808000     0.16700
C440        C  0.63099443  0.91919481  0.38133835    -0.01500
C441        C  0.64139737  0.87968186  0.38971367     0.07100
C442        C  0.62582033  0.86153143  0.42302615    -0.07500
C443        C  0.59914566  0.88133575  0.44656612     0.04500
C444        C  0.58862183  0.92078649  0.43794134    -0.14700
C445        C  0.60552856  0.93945873  0.40567619    -0.08100
C446        C  0.66523564  0.85566168  0.36197683     0.05400
C447        C  0.70140560  0.86888098  0.35103315    -0.09200
C448        C  0.72318067  0.84730252  0.32352199     0.00400
C449        C  0.70923758  0.81146817  0.30713379     0.00300
C450        C  0.67310896  0.79901843  0.31777272    -0.12700
C451        C  0.65112670  0.82046806  0.34441174     0.00800
C452        C  0.75923307  0.86279761  0.31187920     0.40100
C453        C  0.61334421  0.80660468  0.35157343     0.36700
C454        C  0.64370665  0.93854688  0.34621670     0.36400
C455        C  0.58276605  0.86038510  0.47903809     0.37200
N456        N  0.78799583  0.87542111  0.30218462    -0.43600
N457        N  0.58300601  0.79558653  0.35703475    -0.44100
N458        N  0.56945285  0.84347870  0.50491295    -0.41400
N459        N  0.65371721  0.95382581  0.31788576    -0.42900
H460        H  0.59726259  0.96945579  0.39806136     0.13300
H461        H  0.63354832  0.83117526  0.42985179     0.09800
H462        H  0.71249693  0.89624014  0.36372633     0.10900
H463        H  0.66137573  0.77282131  0.30440986     0.16700
C464        C  0.37870669  0.93747025  0.36119998    -0.01500
C465        C  0.38410566  0.89744660  0.34934042     0.07100
C466        C  0.41664744  0.87753189  0.36122942    -0.07500
C467        C  0.44285563  0.89622875  0.38580824     0.04500
C468        C  0.43654299  0.93549638  0.39920618    -0.14700
C469        C  0.40451750  0.95588258  0.38664896    -0.08100
C470        C  0.35632280  0.87503876  0.32510656     0.05400
C471        C  0.36815127  0.85903804  0.28921052    -0.09200
C472        C  0.34527669  0.83279814  0.26784113     0.00400
C473        C  0.30866674  0.82356112  0.28136482     0.00300
C474        C  0.29662723  0.84006518  0.31710550    -0.12700
C475        C  0.32021530  0.86521196  0.33921739     0.00800
C476        C  0.36173468  0.81341235  0.23412503     0.40100
C477        C  0.30776257  0.87834040  0.37740161     0.36700
C478        C  0.34731266  0.96024982  0.34719256     0.36400
C479        C  0.47504688  0.87382737  0.39844305     0.37200
N480        N  0.37578363  0.79843404  0.20725411    -0.43600
N481        N  0.29790931  0.88873097  0.40810335    -0.44100
N482        N  0.50073797  0.85569649  0.40854192    -0.41400
N483        N  0.32224421  0.97853213  0.33577069    -0.42900
H484        H  0.39946080  0.98601096  0.39709539     0.13300
H485        H  0.42110625  0.84685426  0.35201660     0.09800
H486        H  0.39627276  0.86552270  0.27880907     0.10900
H487        H  0.26909048  0.83232805  0.32829861     0.16700
C488        C  0.35352239  0.92695933  0.09997515    -0.01500
C489        C  0.35703122  0.91870561  0.14006583     0.07100
C490        C  0.38934280  0.93237262  0.15988412    -0.07500
C491        C  0.41938138  0.95018626  0.13939781     0.04500
C492        C  0.41789278  0.95284278  0.09814751    -0.14700
C493        C  0.38354289  0.94370293  0.07961770    -0.08100
C494        C  0.33059503  0.89002028  0.15905867     0.05400
C495        C  0.32694294  0.85204416  0.14197759    -0.09200
C496        C  0.30521732  0.82213906  0.15906799     0.00400
C497        C  0.28678112  0.82942586  0.19529252     0.00300
C498        C  0.28709025  0.86904641  0.21000695    -0.12700
C499        C  0.30968572  0.89880296  0.19305360     0.00800
C500        C  0.30516360  0.78417266  0.13895500     0.40100
C501        C  0.31191855  0.93751607  0.21177035     0.36700
C502        C  0.32010962  0.91608542  0.07840173     0.36400
C503        C  0.45145531  0.96432913  0.16125663     0.37200
N504        N  0.30566083  0.75480588  0.12088133    -0.43600
N505        N  0.31388689  0.96843294  0.22703143    -0.44100
N506        N  0.47711497  0.97580356  0.17883045    -0.41400
N507        N  0.29347270  0.90699198  0.06112498    -0.42900
H508        H  0.38049687  0.94764731  0.04837960     0.13300
H509        H  0.39203948  0.92712915  0.19095494     0.09800
H510        H  0.34260064  0.84511876  0.11553129     0.10900
H511        H  0.27188986  0.87606918  0.23665898     0.16700
C512        C  0.34595266  0.61386245  0.40016838    -0.01500
C513        C  0.34345665  0.60182980  0.36038193     0.07100
C514        C  0.35354105  0.56273819  0.34999913    -0.07500
C515        C  0.36828710  0.53688718  0.37770269     0.04500
C516        C  0.37466597  0.55047253  0.41622648    -0.14700
C517        C  0.36202388  0.58836427  0.42746549    -0.08100
C518        C  0.33432094  0.63063780  0.32898370     0.05400
C519        C  0.35359529  0.66716047  0.32852018    -0.09200
C520        C  0.34356201  0.69712284  0.30271160     0.00400
C521        C  0.31513335  0.69002546  0.27481675     0.00300
C522        C  0.29884263  0.65188107  0.27217188    -0.12700
C523        C  0.30755701  0.62251918  0.29944266     0.00800
C524        C  0.36271444  0.73489699  0.30649173     0.40100
C525        C  0.28644863  0.58573113  0.29822092     0.36700
C526        C  0.33384164  0.65277168  0.41352632     0.36400
C527        C  0.37981161  0.49781495  0.36489155     0.37200
N528        N  0.37938119  0.76425565  0.31088877    -0.43600
N529        N  0.26950783  0.55623785  0.29716493    -0.44100
N530        N  0.38875159  0.46643097  0.35433426    -0.41400
N531        N  0.32438708  0.68399539  0.42428967    -0.42900
H532        H  0.36667935  0.59888245  0.45711311     0.13300
H533        H  0.35215133  0.55304784  0.31969507     0.09800
H534        H  0.37576913  0.67291585  0.34954758     0.10900
H535        H  0.27652949  0.64628127  0.25130162     0.16700
C536        C  0.28083298  0.65043945  0.13182556    -0.01500
C537        C  0.31870204  0.64136156  0.12544464     0.07100
C538        C  0.34624361  0.65796394  0.14988381    -0.07500
C539        C  0.33667195  0.68409767  0.18027880     0.04500
C540        C  0.29864856  0.69432141  0.18629449    -0.14700
C541        C  0.27120924  0.67728770  0.16160316    -0.08100
C542        C  0.33116304  0.61510829  0.09328140     0.05400
C543        C  0.35295745  0.63184952  0.06348768    -0.09200
C544        C  0.37467124  0.60756703  0.03910311     0.00400
C545        C  0.37516161  0.56617222  0.04531179     0.00300
C546        C  0.34932771  0.54917686  0.07139448    -0.12700
C547        C  0.32733225  0.57342805  0.09554049     0.00800
C548        C  0.39715422  0.62568466  0.00893474     0.40100
C549        C  0.30372250  0.55501151  0.12460714     0.36700
C550        C  0.25163688  0.63266199  0.10811192     0.36400
C551        C  0.36689907  0.70089886  0.20315808     0.37200
N552        N  0.41498130  0.63995838  0.98446999    -0.43600
N553        N  0.28454813  0.54026898  0.14767298    -0.44100
N554        N  0.39204662  0.71321634  0.22097697    -0.41400
N555        N  0.22853730  0.61759758  0.08929173    -0.42900
H556        H  0.24215120  0.68527332  0.16494998     0.13300
H557        H  0.37550264  0.65061868  0.14488638     0.09800
H558        H  0.35485253  0.66400372  0.06101391     0.10900
H559        H  0.34884990  0.51718470  0.07565578     0.16700
C560        C  0.62102459  0.68256228  0.32560267    -0.01500
C561        C  0.63378173  0.66288373  0.35900553     0.07100
C562        C  0.67201608  0.66141880  0.36695660    -0.07500
C563        C  0.69809703  0.67758886  0.34147143     0.04500
C564        C  0.68604172  0.69613590  0.30673640    -0.14700
C565        C  0.64712555  0.69882759  0.29970610    -0.08100
C566        C  0.60915915  0.63814585  0.38321688     0.05400
C567        C  0.61609663  0.59712512  0.38288332    -0.09200
C568        C  0.59646827  0.57186995  0.40746207     0.00400
C569        C  0.56759087  0.58745520  0.43133217     0.00300
C570        C  0.56051312  0.62860917  0.43169226    -0.12700
C571        C  0.58207828  0.65426398  0.40877420     0.00800
C572        C  0.60681074  0.53027984  0.40728643     0.40100
C573        C  0.57780707  0.69675536  0.41387396     0.36700
C574        C  0.58153999  0.68607735  0.31719007     0.36400
C575        C  0.73665380  0.67284764  0.35248775     0.37200
N576        N  0.61599902  0.49724306  0.40725847    -0.43600
N577        N  0.57477801  0.73078957  0.41865352    -0.44100
N578        N  0.76649723  0.66815979  0.36460744    -0.41400
N579        N  0.54985205  0.68936190  0.31078044    -0.42900
H580        H  0.63687184  0.71434739  0.27433609     0.13300
H581        H  0.68159351  0.64612014  0.39287824     0.09800
H582        H  0.63776028  0.58495429  0.36390762     0.10900
H583        H  0.53896649  0.64074720  0.45077933     0.16700
C584        C  0.63481705  0.69800365  0.16205157    -0.01500
C585        C  0.62154627  0.65980175  0.17120049     0.07100
C586        C  0.63925602  0.63816788  0.20066787    -0.07500
C587        C  0.66940923  0.65468515  0.22171799     0.04500
C588        C  0.68075182  0.69453011  0.21492929    -0.14700
C589        C  0.66410973  0.71477247  0.18363180    -0.08100
C590        C  0.59377093  0.63955494  0.14585067     0.05400
C591        C  0.60568889  0.62679741  0.10891599    -0.09200
C592        C  0.58183972  0.60534658  0.08415317     0.00400
C593        C  0.54471409  0.59625835  0.09636879     0.00300
C594        C  0.53234714  0.61090057  0.13295085    -0.12700
C595        C  0.55659386  0.63232043  0.15771227     0.00800
C596        C  0.59776150  0.59146901  0.04767171     0.40100
C597        C  0.54288684  0.64625437  0.19513352     0.36700
C598        C  0.61956132  0.72009057  0.12977600     0.36400
C599        C  0.69000789  0.62900849  0.24744310     0.37200
N600        N  0.61164065  0.58064228  0.01888103    -0.43600
N601        N  0.53165777  0.65742633  0.22504478    -0.44100
N602        N  0.70650186  0.60818263  0.26786633    -0.41400
N603        N  0.60749423  0.73773554  0.10384338    -0.42900
H604        H  0.67445814  0.74350076  0.17482185     0.13300
H605        H  0.63066728  0.60762785  0.20586879     0.09800
H606        H  0.63436167  0.63272826  0.09985859     0.10900
H607        H  0.50408003  0.60450764  0.14289886     0.16700
C608        C  0.58222357  0.40195950  0.35604842    -0.01500
C609        C  0.60562123  0.37469291  0.37489946     0.07100
C610        C  0.60201338  0.36867131  0.41505452    -0.07500
C611        C  0.57732291  0.39185182  0.43735463     0.04500
C612        C  0.55669739  0.42257669  0.41925688    -0.14700
C613        C  0.55817265  0.42586360  0.37826941    -0.08100
C614        C  0.63593237  0.35447298  0.35354599     0.05400
C615        C  0.66814665  0.37650406  0.34408774    -0.09200
C616        C  0.69669335  0.35930680  0.32167520     0.00400
C617        C  0.69269781  0.31970020  0.30830395     0.00300
C618        C  0.66156105  0.29712195  0.31987274    -0.12700
C619        C  0.63298291  0.31424697  0.34212300     0.00800
C620        C  0.73012725  0.38229711  0.31391435     0.40100
C621        C  0.60032697  0.29058486  0.35146129     0.36700
C622        C  0.58283127  0.40597455  0.31403964     0.36400
C623        C  0.57463835  0.38369673  0.47859051     0.37200
N624        N  0.75720111  0.40062064  0.30862228    -0.43600
N625        N  0.57417365  0.27153250  0.35882180    -0.44100
N626        N  0.57231980  0.37670681  0.51154018    -0.41400
N627        N  0.58320515  0.40869979  0.28035668    -0.42900
H628        H  0.54144177  0.44800736  0.36354003     0.13300
H629        H  0.61941017  0.34663470  0.42914014     0.09800
H630        H  0.67071657  0.40725652  0.35393555     0.10900
H631        H  0.65880368  0.26655116  0.31027877     0.16700
C632        C  0.63477004  0.41725668  0.11266838    -0.01500
C633        C  0.62380360  0.41589189  0.15230180     0.07100
C634        C  0.59131422  0.43626505  0.16428034    -0.07500
C635        C  0.56942485  0.45706452  0.13725686     0.04500
C636        C  0.57971765  0.45700949  0.09733378    -0.14700
C637        C  0.61275554  0.43748708  0.08579015    -0.08100
C638        C  0.64613903  0.39318136  0.18110977     0.05400
C639        C  0.68386433  0.40349661  0.18689895    -0.09200
C640        C  0.70772345  0.37896898  0.20822694     0.00400
C641        C  0.69394141  0.34329103  0.22429330     0.00300
C642        C  0.65532211  0.33520861  0.22199266    -0.12700
C643        C  0.63142167  0.35956839  0.20032262     0.00800
C644        C  0.74543340  0.39272239  0.21456696     0.40100
C645        C  0.59262464  0.34791020  0.19595985     0.36700
C646        C  0.66836904  0.39792383  0.09848833     0.36400
C647        C  0.53802151  0.48001757  0.15162900     0.37200
N648        N  0.77473308  0.40661618  0.21976486    -0.43600
N649        N  0.56148900  0.33866491  0.19244310    -0.44100
N650        N  0.51312046  0.49875854  0.16327489    -0.41400
N651        N  0.69542250  0.38295260  0.08683003    -0.42900
H652        H  0.62145544  0.43778053  0.05539788     0.13300
H653        H  0.58335299  0.43633029  0.19488234     0.09800
H654        H  0.69496679  0.43030292  0.17363934     0.10900
H655        H  0.64420870  0.30868950  0.23545759     0.16700
C656        C  0.34957957  0.35153983  0.29845176    -0.01500
C657        C  0.37369508  0.33098189  0.32363023     0.07100
C658        C  0.36596420  0.29130223  0.33271794    -0.07500
C659        C  0.33367898  0.27262587  0.31891378     0.04500
C660        C  0.31159574  0.29146139  0.29032775    -0.14700
C661        C  0.31938723  0.33148833  0.28155289    -0.08100
C662        C  0.39925650  0.35269841  0.34984073     0.05400
C663        C  0.38971333  0.35289710  0.38951027    -0.09200
C664        C  0.40819698  0.37764033  0.41574741     0.00400
C665        C  0.43665332  0.40337254  0.40196707     0.00300
C666        C  0.44834706  0.40098369  0.36288636    -0.12700
C667        C  0.42987702  0.37553552  0.33662133     0.00800
C668        C  0.39472178  0.37829416  0.45569129     0.40100
C669        C  0.44190283  0.37457024  0.29637265     0.36700
C670        C  0.35343295  0.39366568  0.29139286     0.36400
C671        C  0.32070477  0.23945910  0.34141907     0.37200
N672        N  0.38383766  0.37858528  0.48758776    -0.43600
N673        N  0.45193515  0.37440048  0.26420563    -0.44100
N674        N  0.31035684  0.21510534  0.36253137    -0.41400
N675        N  0.35588987  0.42745763  0.28554497    -0.42900
H676        H  0.30200543  0.34721530  0.26104079     0.13300
H677        H  0.38277498  0.27664360  0.35470454     0.09800
H678        H  0.36610872  0.33524967  0.39968855     0.10900
H679        H  0.47059536  0.42036701  0.35256644     0.16700
C680        C  0.38797629  0.41387103  0.15640109    -0.01500
C681        C  0.39343261  0.37226431  0.15302412     0.07100
C682        C  0.42168324  0.35758283  0.12828130    -0.07500
C683        C  0.44183492  0.38333772  0.10418528     0.01500
C684        C  0.43343400  0.42447300  0.10459008    -0.14700
C685        C  0.40823023  0.43957962  0.13248125    -0.08100
C686        C  0.36598826  0.34391137  0.16967091     0.05400
C687        C  0.32844778  0.34751652  0.15830500    -0.09200
C688        C  0.30061297  0.32313831  0.17396489     0.00400
C689        C  0.31012833  0.29478260  0.20234478     0.00300
C690        C  0.34839728  0.28799717  0.21006539    -0.12700
C691        C  0.37627251  0.31256979  0.19440762     0.00800
C692        C  0.26318141  0.32798859  0.15922948     0.40100
C693        C  0.41483826  0.30559931  0.20497534     0.36700
C694        C  0.35957387  0.43079309  0.18170662     0.36400
C695        C  0.46986714  0.36657830  0.07833127     0.37200
N696        N  0.23411121  0.33256062  0.14509128    -0.43600
N697        N  0.44574139  0.29954313  0.21323478    -0.44100
N698        N  0.49233433  0.35316279  0.05762224    -0.41400
N699        N  0.33647587  0.44470760  0.20129623    -0.42900
H700        H  0.40194882  0.47119857  0.13340646     0.13300
H701        H  0.42618428  0.32570682  0.12570696     0.09800
H702        H  0.32083178  0.36980022  0.13703192     0.10900
H703        H  0.35637663  0.26454802  0.22987859     0.16700
O704        O  0.44631573  0.48956889  0.57987438    -0.79700
O705        O  0.53028543  0.48190185  0.92706317    -0.79700
O706        O  0.45751602  0.42700175  0.96140457    -0.79700
O707        O  0.57363060  0.48900849  0.53443909    -0.79600
O708        O  0.45943693  0.46714949  0.91158240    -0.79800
O709        O  0.52042565  0.48015948  0.56696057    -0.79700
O710        O  0.53545468  0.44852947  0.98193783    -0.79700
O711        O  0.44982240  0.43914346  0.54013488    -0.79700
C712        C  0.44398452  0.45247393  0.57404228     1.10000
C713        C  0.53995842  0.45065402  0.94527096     1.09900
C714        C  0.45555064  0.43238627  0.92529674     1.10000
C715        C  0.55635328  0.47521276  0.56371100     1.09900
O716        O  0.49294149  0.55066354  0.59203485    -0.79700
O717        O  0.43817049  0.54538760  0.93963568    -0.79700
O718        O  0.40039309  0.50840187  0.52941251    -0.79700
O719        O  0.55923080  0.52907373  0.97201493    -0.79700
O720        O  0.51126786  0.56340841  0.95333730    -0.79700
O721        O  0.44060966  0.55886126  0.53369477    -0.79700
O722        O  0.53077251  0.55427262  0.54089141    -0.79600
O723        O  0.40373933  0.49146024  0.94795793    -0.79700
Co724      Co  0.48071696  0.52182224  0.54657911     1.51500
Co725      Co  0.48447656  0.51507714  0.93610063     1.51700
Co726      Co  0.43104280  0.46558927  0.99395284     1.51600
Co727      Co  0.52791459  0.49968251  0.50975485     1.51500
O728        O  0.47515262  0.50153302  0.49258766    -1.41600
C729        C  0.52185873  0.56526957  0.57613037     1.10000
C730        C  0.40843054  0.52604629  0.93334115     1.10000
C731        C  0.40724386  0.54552958  0.53406667     1.10000
C732        C  0.54616130  0.55926358  0.95527028     1.10000
O733        O  0.55728791  0.96669098  0.56129654    -0.79700
O734        O  0.53471421  0.02759699  0.89860906    -0.79700
O735        O  0.52985828  0.92129091  0.96477157    -0.79700
O736        O  0.51948011  0.09255519  0.53241846    -0.79600
O737        O  0.56207551  0.97694481  0.95403105    -0.79800
O738        O  0.55836386  0.04577284  0.54887630    -0.79700
O739        O  0.54052970  0.06565234  0.95101469    -0.79700
O740        O  0.51638953  0.91903536  0.55080942    -0.79700
C741        C  0.54764127  0.93082288  0.56474778     1.10000
C742        C  0.54924783  0.05790230  0.91491020     1.09900
C743        C  0.55961515  0.93919285  0.95276555     1.10000
C744        C  0.55071579  0.08228002  0.54727902     1.09900
O745        O  0.48124951  0.05160939  0.57908539    -0.79700
O746        O  0.49382606  0.96246994  0.91492538    -0.79700
O747        O  0.44382365  0.95600297  0.54171232    -0.79700
O748        O  0.47003183  0.09693053  0.96011312    -0.79700
O749        O  0.46585784  0.03702039  0.93262801    -0.79700
O750        O  0.47942559  0.97269250  0.59178093    -0.79700
O751        O  0.44661874  0.05288622  0.52613928    -0.79600
O752        O  0.45148506  0.95221663  0.95878656    -0.79700
Co753      Co  0.51909461  0.00878214  0.56665035     1.51500
Co754      Co  0.51608608  0.00760623  0.94662492     1.51700
Co755      Co  0.48533449  0.94238997  0.50659967     1.51600
Co756      Co  0.49223510  0.05649557  0.49311515     1.51500
O757        O  0.50319454  0.00002786  0.51021973    -1.41600
C758        C  0.44968064  0.05747426  0.56285850     1.10000
C759        C  0.46191331  0.94924811  0.92394538     1.10000
C760        C  0.44750904  0.96203526  0.57798987     1.10000
C761        C  0.45445852  0.07363200  0.93520474     1.10000
O762        O  0.95499793  0.54777243  0.54021802    -0.79700
O763        O  0.09366688  0.52497956  0.96288920    -0.79700
O764        O  0.03546361  0.55918510  0.54713885    -0.79700
O765        O  0.97365713  0.56357905  0.95967584    -0.79600
O766        O  0.08680492  0.52381472  0.53807871    -0.79800
O767        O  0.92812050  0.52401268  0.97119584    -0.79700
O768        O  0.04620908  0.56436422  0.95206664    -0.79700
O769        O  0.98165470  0.52939021  0.59493386    -0.79700
C770        C  0.95884628  0.55203054  0.57786416     1.10000
C771        C  0.08064504  0.55754149  0.94983062     1.09900
C772        C  0.07031496  0.55466625  0.55211680     1.10000
C773        C  0.93966173  0.55577681  0.95555963     1.09900
O774        O  0.96099379  0.44712858  0.97923358    -0.79700
O775        O  0.05636120  0.44129900  0.53236279    -0.79700
O776        O  0.97079169  0.45983239  0.55512055    -0.79700
O777        O  0.04610635  0.48494996  0.91518864    -0.79700
O778        O  0.06090787  0.44473853  0.96276742    -0.79700
O779        O  0.91655245  0.47799097  0.53054577    -0.79700
O780        O  0.97005047  0.48119998  0.92544211    -0.79600
O781        O  0.04091612  0.48079121  0.57984998    -0.79700
Co782      Co  0.96141908  0.49553903  0.50568093     1.51500
Co783      Co  0.07117225  0.48329328  0.49559416     1.51700
Co784      Co  0.00328544  0.51096027  0.54732586     1.51600
Co785      Co  0.00920342  0.52299874  0.94159988     1.51500
O786        O  0.01660356  0.50209135  0.49025749    -1.41600
C787        C  0.95786408  0.44987487  0.94242491     1.10000
C788        C  0.05533068  0.44831130  0.56839489     1.10000
C789        C  0.93475668  0.45583869  0.55345179     1.10000
C790        C  0.05734154  0.45110713  0.92683073     1.10000
C791        C  0.25293847  0.24267033  0.78436665     0.45900
H792        H  0.25461114  0.24018683  0.81650044    -0.03100
C793        C  0.24676870  0.24789769  0.70905035     0.46000
H794        H  0.24362242  0.25004819  0.67688069    -0.03100
C795        C  0.28220911  0.27071561  0.76595253    -0.16800
C796        C  0.26002396  0.20251680  0.76271486    -0.16500
C797        C  0.21480074  0.25964181  0.77147435    -0.16900
C798        C  0.27899751  0.27328441  0.72583361    -0.16900
C799        C  0.25676035  0.20522445  0.72243540    -0.16500
C800        C  0.21175346  0.26251399  0.73152618    -0.16800
C801        C  0.74426248  0.28638620  0.71389464     0.45900
H802        H  0.74635586  0.29562387  0.68314700    -0.03100
C803        C  0.74284545  0.26795158  0.78700018     0.46000
H804        H  0.74181683  0.26023305  0.81847282    -0.03100
C805        C  0.72052634  0.31509583  0.73919957    -0.16800
C806        C  0.72647146  0.24481545  0.72026160    -0.16500
C807        C  0.78320233  0.28667239  0.73319957    -0.16900
C808        C  0.71950515  0.30463127  0.77771886    -0.16900
C809        C  0.72540945  0.23530772  0.75973200    -0.16500
C810        C  0.78287304  0.27890231  0.77269348    -0.16800
C811        C  0.25110553  0.75470275  0.70627657     0.45900
H812        H  0.24337633  0.75661767  0.67503412    -0.03100
C813        C  0.26696372  0.75089994  0.77980218     0.46000
H814        H  0.27301039  0.74967675  0.81157684    -0.03100
C815        C  0.27998584  0.72191470  0.71587068    -0.16800
C816        C  0.26865041  0.79377129  0.72230018    -0.16500
C817        C  0.21691665  0.74316628  0.73153683    -0.16900
C818        C  0.28840514  0.71965891  0.75525945    -0.16900
C819        C  0.27751684  0.79107621  0.76133496    -0.16500
C820        C  0.22527055  0.74195639  0.77090182    -0.16800
C821        C  0.74693859  0.74070966  0.79468213     0.45900
H822        H  0.74980923  0.74284109  0.82687979    -0.03100
C823        C  0.74074926  0.73895912  0.71947814     0.46000
H824        H  0.73889548  0.73922938  0.68717193    -0.03100
C825        C  0.71632489  0.71152904  0.78046462    -0.16800
C826        C  0.73480206  0.78097802  0.77777364    -0.16500
C827        C  0.78287740  0.72636564  0.77381433    -0.16900
C828        C  0.71328666  0.71008815  0.74002633    -0.16900
C829        C  0.73098805  0.78022437  0.73773465    -0.16500
C830        C  0.77989062  0.72566175  0.73364951    -0.16800
C831        C  0.17380073  0.64977622  0.68700203    -0.01500
C832        C  0.14860652  0.66509880  0.65896423     0.07100
C833        C  0.14258508  0.70660941  0.65897859    -0.07500
C834        C  0.16250701  0.73245162  0.68443672     0.04500
C835        C  0.18766663  0.71706501  0.71221352    -0.14700
C836        C  0.19195688  0.67543926  0.71375663    -0.08100
C837        C  0.12813804  0.63801830  0.63036245     0.05400
C838        C  0.10912043  0.60453151  0.64476527    -0.09200
C839        C  0.09111070  0.57708758  0.61977107     0.00400
C840        C  0.09065133  0.58294954  0.57890670     0.00300
C841        C  0.10828718  0.61723384  0.56431429    -0.12700
C842        C  0.12735701  0.64430129  0.58939560     0.00800
C843        C  0.07322814  0.54331281  0.63758668     0.40100
C844        C  0.14681439  0.67747880  0.57205120     0.36700
C845        C  0.18482548  0.60838290  0.68634743     0.36400
C846        C  0.15792854  0.77490510  0.68049862     0.37200
N847        N  0.05944861  0.51687287  0.65360514    -0.43600
N848        N  0.16245485  0.70397265  0.55794136    -0.44100
N849        N  0.15446822  0.80898436  0.67727522    -0.41400
N850        N  0.19401476  0.57533767  0.68567918    -0.42900
H851        H  0.21300621  0.66310009  0.73277590     0.13300
H852        H  0.12294925  0.71907894  0.63835841     0.09800
H853        H  0.10840920  0.59961483  0.67603269     0.10900
H854        H  0.10733448  0.62282384  0.53321222     0.16700
C855        C  0.10419276  0.63803236  0.87717757    -0.01500
C856        C  0.14270546  0.64550308  0.88359128     0.07100
C857        C  0.16083622  0.62458080  0.91377549    -0.07500
C858        C  0.14187650  0.59532919  0.93561857     0.04500
C859        C  0.10371045  0.58722135  0.92815049    -0.14700
C860        C  0.08546164  0.60920908  0.89903160    -0.08100
C861        C  0.16492486  0.67178593  0.85671997     0.05400
C862        C  0.15233376  0.71048287  0.84739840    -0.09200
C863        C  0.17058547  0.73343807  0.81867317     0.00400
C864        C  0.20289051  0.71860492  0.79997650     0.00300
C865        C  0.21600414  0.68093447  0.81050981    -0.12700
C866        C  0.19736325  0.65735408  0.83771751     0.00800
C867        C  0.15574991  0.77193737  0.80878665     0.40100
C868        C  0.21161164  0.61763821  0.84384558     0.36700
C869        C  0.08303743  0.65856609  0.84766236     0.36400
C870        C  0.16196348  0.57463115  0.96572840     0.37200
N871        N  0.14381241  0.80273642  0.80057606    -0.43600
N872        N  0.22331391  0.58595722  0.84866631    -0.44100
N873        N  0.17803933  0.55798799  0.98988579    -0.41400
N874        N  0.06574900  0.67532761  0.82450730    -0.42900
H875        H  0.05620580  0.60324557  0.89250354     0.13300
H876        H  0.19016594  0.63061701  0.91985820     0.09800
H877        H  0.12788431  0.72256472  0.86206956     0.10900
H878        H  0.24004579  0.66901584  0.79645339     0.16700
C879        C  0.12151352  0.29890837  0.81033973    -0.01500
C880        C  0.13312955  0.32937117  0.83641057     0.07100
C881        C  0.17110408  0.33208619  0.84620283    -0.07500
C882        C  0.19796021  0.30735221  0.82853978     0.04500
C883        C  0.18711723  0.27927805  0.79914209    -0.14700
C884        C  0.14837257  0.27421619  0.79211861    -0.08100
C885        C  0.10710464  0.35955886  0.85385995     0.05400
C886        C  0.08402899  0.34888542  0.88526455    -0.09200
C887        C  0.06538398  0.37810402  0.90769826     0.00400
C888        C  0.06966187  0.41912537  0.89887720     0.00300
C889        C  0.09037273  0.42939630  0.86549339    -0.12700
C890        C  0.10921974  0.40011738  0.84326751     0.00800
C891        C  0.04256072  0.36514159  0.94011953     0.40100
C892        C  0.13196436  0.41250775  0.81060910     0.36700
C893        C  0.08249882  0.29345018  0.80055732     0.36400
C894        C  0.23608294  0.31387112  0.84091319     0.37200
N895        N  0.02427127  0.35468594  0.96606128    -0.43600
N896        N  0.15021730  0.42242739  0.78444672    -0.44100
N897        N  0.26554149  0.32088097  0.85340379    -0.41400
N898        N  0.05125014  0.28869912  0.79259949    -0.42900
H899        H  0.13916298  0.25210261  0.77079783     0.13300
H900        H  0.17997591  0.35462352  0.86731554     0.09800
H901        H  0.08206548  0.31782222  0.89348122     0.10900
H902        H  0.09383251  0.46054941  0.85814729     0.16700
C903        C  0.12103383  0.36775420  0.60389926    -0.01500
C904        C  0.11015533  0.36256800  0.64316200     0.07100
C905        C  0.08020681  0.38539694  0.65804249    -0.07500
C906        C  0.06125887  0.41297272  0.63440063     0.04500
C907        C  0.07315627  0.41920142  0.59544970    -0.14700
C908        C  0.10277825  0.39576564  0.58071033    -0.08100
C909        C  0.13174803  0.33562397  0.66935756     0.05400
C910        C  0.15536897  0.35291517  0.69756059    -0.09200
C911        C  0.18117343  0.32983437  0.71826895     0.00400
C912        C  0.18307325  0.28802051  0.71175199     0.00300
C913        C  0.15834490  0.27050208  0.68459478    -0.12700
C914        C  0.13275833  0.29382822  0.66358879     0.00800
C915        C  0.20777166  0.35073590  0.74284876     0.40100
C916        C  0.10810028  0.27437744  0.63586019     0.36700
C917        C  0.15155347  0.34529639  0.58684592     0.36400
C918        C  0.02809160  0.43201305  0.64980486     0.37200
N919        N  0.22881011  0.36848163  0.76207999    -0.43600
N920        N  0.08831312  0.25881727  0.61360091    -0.44100
N921        N  0.00111349  0.44672816  0.66195237    -0.41400
N922        N  0.17580401  0.32711801  0.57301854    -0.42900
H923        H  0.11215492  0.39960861  0.55081266     0.13300
H924        H  0.07130321  0.38125006  0.68804298     0.09800
H925        H  0.15528299  0.38503449  0.70165687     0.10900
H926        H  0.15940753  0.23857915  0.67939194     0.16700
C927        C  0.85663463  0.40350289  0.60777097    -0.01500
C928        C  0.87626062  0.37360737  0.62769434     0.07100
C929        C  0.91445213  0.36814770  0.62036075    -0.07500
C930        C  0.93374588  0.39317875  0.59476883     0.04500
C931        C  0.91499871  0.42567786  0.57745230    -0.14700
C932        C  0.87615873  0.42967967  0.58349522    -0.08100
C933        C  0.85768109  0.34881806  0.65745055     0.05400
C934        C  0.84617492  0.31002875  0.64765273    -0.09200
C935        C  0.82474043  0.28774797  0.67391009     0.00400
C936        C  0.81458937  0.30439109  0.71053100     0.00300
C937        C  0.82873804  0.34203261  0.72132462    -0.12700
C938        C  0.85022114  0.36426430  0.69508609     0.00800
C939        C  0.81221393  0.24837580  0.66221083     0.40100
C940        C  0.86179230  0.40417035  0.70609561     0.36700
C941        C  0.81641715  0.40732039  0.61110580     0.36400
C942        C  0.97149102  0.38217871  0.58421869     0.37200
N943        N  0.80213110  0.21680197  0.65300062    -0.43600
N944        N  0.87063823  0.43637753  0.71449910    -0.44100
N945        N  0.00118592  0.37174859  0.57522340    -0.41400
N946        N  0.78412790  0.41021750  0.61302584    -0.42900
H947        H  0.86093331  0.45343477  0.56941825     0.13300
H948        H  0.92914053  0.34402866  0.63449943     0.09800
H949        H  0.85266102  0.29782879  0.61894143     0.10900
H950        H  0.82050261  0.35558941  0.74891585     0.16700
C951        C  0.82487043  0.34437644  0.85398658    -0.01500
C952        C  0.86400544  0.34072559  0.84826959     0.07100
C953        C  0.87661341  0.31306513  0.81989727    -0.07500
C954        C  0.85116282  0.29070692  0.79661842     0.04500
C955        C  0.81189899  0.29616463  0.80079987    -0.14700
C956        C  0.79960431  0.32228514  0.83071007    -0.08100
C957        C  0.89158625  0.36560552  0.87173993     0.05400
C958        C  0.89173896  0.36300181  0.91265384    -0.09200
C959        C  0.91419846  0.38832933  0.93609845     0.00400
C960        C  0.93715913  0.41817900  0.91891190     0.00300
C961        C  0.93828618  0.41931486  0.87769991    -0.12700
C962        C  0.91631172  0.39329734  0.85431843     0.00800
C963        C  0.91212831  0.38269992  0.97768574     0.40100
C964        C  0.91907009  0.39632223  0.81242045     0.36700
C965        C  0.80965006  0.37202986  0.88249151     0.36400
C966        C  0.86620807  0.26240841  0.76873205     0.37200
N967        N  0.90988059  0.37677471  0.01080996    -0.43600
N968        N  0.92176515  0.39846898  0.77881995    -0.44100
N969        N  0.87854008  0.23996724  0.74625151    -0.41400
N970        N  0.79735897  0.39408344  0.90536791    -0.42900
H971        H  0.76991113  0.32691751  0.83519360     0.13300
H972        H  0.90652449  0.30898883  0.81580834     0.09800
H973        H  0.87365376  0.34122676  0.92650200     0.10900
H974        H  0.95606006  0.44108058  0.86346562     0.16700
C975        C  0.83426441  0.63543161  0.81246192    -0.01500
C976        C  0.85184248  0.65099236  0.84644132     0.07100
C977        C  0.85027376  0.69240679  0.85340685    -0.07500
C978        C  0.82982379  0.71763552  0.82893649     0.04500
C979        C  0.81054614  0.70186237  0.79620584    -0.14700
C980        C  0.81351182  0.66066871  0.78813178    -0.08100
C981        C  0.87307696  0.62559748  0.87467522     0.05400
C982        C  0.91008302  0.63645037  0.88348913    -0.09200
C983        C  0.93126729  0.61562338  0.91085921     0.00400
C984        C  0.91607604  0.58150711  0.92970004     0.00300
C985        C  0.87864599  0.57093612  0.92135506    -0.12700
C986        C  0.85697624  0.59297934  0.89478603     0.00800
C987        C  0.96834117  0.63111174  0.91908551     0.40100
C988        C  0.81793853  0.58245151  0.89004360     0.36700
C989        C  0.83733924  0.59384666  0.80165501     0.36400
C990        C  0.82776826  0.75936253  0.83920394     0.37200
N991        N  0.99778897  0.64419232  0.92563839    -0.43600
N992        N  0.78664044  0.57387398  0.88644484    -0.44100
N993        N  0.82625248  0.79268960  0.84808611    -0.41400
N994        N  0.83972446  0.56050077  0.79297009    -0.42900
H995        H  0.79844555  0.64782832  0.76349479     0.13300
H996        H  0.86403145  0.70498062  0.87900661     0.09800
H997        H  0.92255083  0.66188571  0.86899343     0.10900
H998        H  0.86614590  0.54548031  0.93571532     0.16700
C999        C  0.87565296  0.69456687  0.69227459    -0.01500
C1000       C  0.86593093  0.66607575  0.66331326     0.07100
C1001       C  0.82798789  0.65895056  0.65584467    -0.07500
C1002       C  0.79969309  0.67872914  0.67673542     0.04500
C1003       C  0.80891508  0.70656552  0.70699207    -0.14700
C1004       C  0.84735038  0.71450139  0.71363297    -0.08100
C1005       C  0.89407924  0.64128506  0.64157537     0.05400
C1006       C  0.91466756  0.61283068  0.66200519    -0.09200
C1007       C  0.93625791  0.58400948  0.64219695     0.00400
C1008       C  0.93811388  0.58352087  0.60061583     0.00300
C1009       C  0.91848863  0.61311473  0.58039278    -0.12700
C1010       C  0.89652500  0.64152202  0.60035946     0.00800
C1011       C  0.95412569  0.55410341  0.66569638     0.40100
C1012       C  0.87596987  0.67019308  0.57784462     0.36700
C1013       C  0.91440542  0.70433300  0.70000287     0.36400
C1014       C  0.76201868  0.66782919  0.66594569     0.37200
N1015       N  0.96806048  0.53023793  0.68494608    -0.43600
N1016       N  0.85930525  0.69308116  0.55984601    -0.44100
N1017       N  0.73308320  0.65741587  0.65439775    -0.41400
N1018       N  0.94548975  0.71235584  0.70600242    -0.42900
H1019       H  0.85535040  0.73611309  0.73595338     0.13300
H1020       H  0.82035582  0.63687345  0.63375201     0.09800
H1021       H  0.91230701  0.61184864  0.69360052     0.10900
H1022       H  0.91958028  0.61363717  0.54873192     0.16700
C1023       C  0.61880548  0.08890156  0.83612599    -0.01500
C1024       C  0.62965883  0.12747204  0.84839198     0.07100
C1025       C  0.61384532  0.14359739  0.88265796    -0.07500
C1026       C  0.58760850  0.12188151  0.90474499     0.04500
C1027       C  0.57723631  0.08263307  0.89303369    -0.14700
C1028       C  0.59323006  0.06680831  0.85847961    -0.08100
C1029       C  0.65516121  0.15255655  0.82420484     0.05400
C1030       C  0.63994065  0.17341510  0.79294322    -0.09200
C1031       C  0.66193157  0.19939727  0.77060142     0.00400
C1032       C  0.70105505  0.20369566  0.77820489     0.00300
C1033       C  0.71625358  0.18181013  0.80924902    -0.12700
C1034       C  0.69368149  0.15692575  0.83243073     0.00800
C1035       C  0.64204863  0.22307609  0.74260369     0.40100
C1036       C  0.71030571  0.13713122  0.86529708     0.36700
C1037       C  0.63311496  0.07168542  0.80024195     0.36400
C1038       C  0.57041541  0.14166838  0.93788594     0.37200
N1039       N  0.62453500  0.24068940  0.72027756    -0.43600
N1040       N  0.72350494  0.12146598  0.89185760    -0.44100
N1041       N  0.55651517  0.15791091  0.96416519    -0.41400
N1042       N  0.64444332  0.05802563  0.77135586    -0.42900
H1043       H  0.58555263  0.03705822  0.84855681     0.13300
H1044       H  0.62130109  0.17373914  0.89159111     0.09800
H1045       H  0.61014506  0.17058354  0.78699576     0.10900
H1046       H  0.74573433  0.18529471  0.81634555     0.16700
C1047       C  0.64324453  0.12322819  0.58465827    -0.01500
C1048       C  0.63180346  0.15262793  0.61188213     0.07100
C1049       C  0.59347517  0.16262537  0.61378665    -0.07500
C1050       C  0.56657817  0.14221601  0.59085544     0.04500
C1051       C  0.57785381  0.11088822  0.56554544    -0.14700
C1052       C  0.61641596  0.10239926  0.56232974    -0.08100
C1053       C  0.65941064  0.17463334  0.63725533     0.05400
C1054       C  0.66380888  0.21551964  0.63200141    -0.09200
C1055       C  0.68747361  0.23854426  0.65603565     0.00400
C1056       C  0.70722901  0.22083840  0.68772183     0.00300
C1057       C  0.70510969  0.17889700  0.69049966    -0.12700
C1058       C  0.68109468  0.15601928  0.66629224     0.00800
C1059       C  0.68933713  0.28005960  0.64634745     0.40100
C1060       C  0.67784925  0.11378007  0.67308333     0.36700
C1061       C  0.68245643  0.11442833  0.57867804     0.36400
C1062       C  0.52752178  0.15248718  0.59547197     0.37200
N1063       N  0.69053707  0.31277486  0.63615675    -0.43600
N1064       N  0.67529354  0.07988081  0.67841845    -0.44100
N1065       N  0.49620823  0.16076154  0.59908404    -0.41400
N1066       N  0.71395090  0.10764559  0.57394473    -0.42900
H1067       H  0.62561910  0.07878275  0.54265746     0.13300
H1068       H  0.58444877  0.18590382  0.63392443     0.09800
H1069       H  0.64813538  0.22975293  0.60888419     0.10900
H1070       H  0.72103523  0.16394389  0.71287692     0.16700
C1071       C  0.35235138  0.09659456  0.58789062    -0.01500
C1072       C  0.35482087  0.10399802  0.62843404     0.07100
C1073       C  0.38780801  0.09391218  0.64806299    -0.07500
C1074       C  0.41881715  0.07834758  0.62775783     0.04500
C1075       C  0.41690339  0.07170375  0.58665476    -0.14700
C1076       C  0.38291740  0.08014198  0.56755031    -0.08100
C1077       C  0.32648921  0.12877211  0.64944193     0.05400
C1078       C  0.29998203  0.11138434  0.67453328    -0.09200
C1079       C  0.27512845  0.13527142  0.69670682     0.00400
C1080       C  0.27716443  0.17740247  0.69456688     0.00300
C1081       C  0.30241467  0.19402363  0.66746070    -0.12700
C1082       C  0.32714543  0.17043181  0.64567655     0.00800
C1083       C  0.24769462  0.11585381  0.72106440     0.40100
C1084       C  0.35446537  0.18986383  0.62101870     0.36700
C1085       C  0.31937547  0.10765485  0.56622805     0.36400
C1086       C  0.45261476  0.07182402  0.64994782     0.37200
N1087       N  0.22572859  0.10012131  0.74054257    -0.43600
N1088       N  0.37654805  0.20524153  0.60140655    -0.44100
N1089       N  0.47973267  0.06711797  0.66783162    -0.41400
N1090       N  0.29305112  0.11681482  0.54881998    -0.42900
H1091       H  0.38052731  0.07532727  0.53626051     0.13300
H1092       H  0.39007415  0.10039009  0.67912454     0.09800
H1093       H  0.29900555  0.07921641  0.67711756     0.10900
H1094       H  0.30440567  0.22581749  0.66410498     0.16700
C1095       C  0.34955807  0.15111998  0.79566221    -0.01500
C1096       C  0.33751448  0.13019894  0.82910620     0.07100
C1097       C  0.29882535  0.12927343  0.83761825    -0.07500
C1098       C  0.27284347  0.15055790  0.81485608     0.04500
C1099       C  0.28517066  0.17283517  0.78245395    -0.14700
C1100       C  0.32358809  0.17190029  0.77277812    -0.08100
C1101       C  0.36528591  0.11296062  0.85736041     0.05400
C1102       C  0.36969341  0.13071726  0.89455756    -0.09200
C1103       C  0.39785341  0.11815039  0.92052653     0.00400
C1104       C  0.42279358  0.08720185  0.90952427     0.00300
C1105       C  0.41709944  0.06822524  0.87294001    -0.12700
C1106       C  0.38879367  0.08069410  0.84712666     0.00800
C1107       C  0.39960218  0.13663093  0.95880336     0.40100
C1108       C  0.38410030  0.05980149  0.81029374     0.36700
C1109       C  0.38887839  0.15464965  0.78611118     0.36400
C1110       C  0.23395432  0.15122631  0.82658789     0.37200
N1111       N  0.40086019  0.15119968  0.98961297    -0.43600
N1112       N  0.38007669  0.04322325  0.78072347    -0.44100
N1113       N  0.20272626  0.15205211  0.83584564    -0.41400
N1114       N  0.42040152  0.15756139  0.77848127    -0.42900
H1115       H  0.33385029  0.18990275  0.74890781     0.13300
H1116       H  0.28913417  0.11353934  0.86323749     0.09800
H1117       H  0.35137914  0.15500106  0.90318090     0.10900
H1118       H  0.43526335  0.04388472  0.86407785     0.16700
C1119       C  0.63421342  0.87768844  0.60253071    -0.01500
C1120       C  0.62301568  0.86637462  0.64073341     0.07100
C1121       C  0.58527049  0.87326495  0.65134452    -0.07500
C1122       C  0.55942722  0.88957304  0.62500771     0.04500
C1123       C  0.57174120  0.90435079  0.58875998    -0.14700
C1124       C  0.60929626  0.89816948  0.57800504    -0.08100
C1125       C  0.64974862  0.84677460  0.66921352     0.05400
C1126       C  0.68714510  0.86071589  0.67314784    -0.09200
C1127       C  0.71381220  0.84036787  0.69592695     0.00400
C1128       C  0.70310152  0.80656538  0.71724377     0.00300
C1129       C  0.66506751  0.79552125  0.71683406    -0.12700
C1130       C  0.63895187  0.81383454  0.69236421     0.00800
C1131       C  0.75212409  0.85428724  0.69659938     0.40100
C1132       C  0.60216112  0.79575774  0.68991449     0.36700
C1133       C  0.67048211  0.86716061  0.58682981     0.36400
C1134       C  0.52026643  0.88973768  0.63558008     0.37200
N1135       N  0.78290042  0.86538170  0.69721798    -0.43600
N1136       N  0.57277199  0.78102086  0.68831287    -0.44100
N1137       N  0.48881734  0.88806946  0.64377930    -0.41400
N1138       N  0.69944832  0.85843698  0.57411153    -0.42900
H1139       H  0.61900382  0.90865442  0.54986650     0.13300
H1140       H  0.57553641  0.86582234  0.68034240     0.09800
H1141       H  0.69595456  0.88712692  0.65765419     0.10900
H1142       H  0.65606956  0.76987589  0.73317220     0.16700
C1143       C  0.63361385  0.91566217  0.87653690    -0.01500
C1144       C  0.64221138  0.87551619  0.88385138     0.07100
C1145       C  0.62485001  0.85654912  0.91565882    -0.07500
C1146       C  0.59835942  0.87654564  0.93914601     0.04500
C1147       C  0.58967418  0.91681195  0.93171718    -0.14700
C1148       C  0.60818307  0.93600608  0.90070031    -0.08100
C1149       C  0.66629771  0.85187423  0.85647361     0.05400
C1150       C  0.70381560  0.86324661  0.84931531    -0.09200
C1151       C  0.72629814  0.84173279  0.82254313     0.00400
C1152       C  0.71163458  0.80770428  0.80344220     0.00300
C1153       C  0.67433257  0.79675588  0.81084921    -0.12700
C1154       C  0.65144230  0.81878883  0.83599502     0.00800
C1155       C  0.76387283  0.85542504  0.81448009     0.40100
C1156       C  0.61224088  0.80793692  0.83858466     0.36700
C1157       C  0.64820310  0.93567118  0.84256276     0.36400
C1158       C  0.58038256  0.85491384  0.97026954     0.37200
N1159       N  0.79387516  0.86666664  0.80761175    -0.43600
N1160       N  0.58078214  0.79942684  0.84014599    -0.44100
N1161       N  0.56589324  0.83736445  0.99503396    -0.41400
N1162       N  0.65969388  0.95142783  0.81510013    -0.42900
H1163       H  0.60128255  0.96659556  0.89385539     0.13300
H1164       H  0.63116137  0.82555870  0.92135128     0.09800
H1165       H  0.71537966  0.88913008  0.86435092     0.10900
H1166       H  0.66258282  0.77108821  0.79648228     0.16700
C1167       C  0.37738251  0.93119506  0.86009006    -0.01500
C1168       C  0.38166620  0.89062331  0.84960368     0.07100
C1169       C  0.41427761  0.87053445  0.86115088    -0.07500
C1170       C  0.44176524  0.88976935  0.88380596     0.04500
C1171       C  0.43687719  0.92993349  0.89518351    -0.14700
C1172       C  0.40471129  0.95030207  0.88313855    -0.08100
C1173       C  0.35326548  0.86830978  0.82601326     0.05400
C1174       C  0.36467537  0.85137778  0.79036993    -0.09200
C1175       C  0.34081099  0.82629021  0.76889079     0.00400
C1176       C  0.30376807  0.81882429  0.78229199     0.00300
C1177       C  0.29218921  0.83612980  0.81781146    -0.12700
C1178       C  0.31659921  0.86046127  0.83983408     0.00800
C1179       C  0.35640115  0.80690833  0.73472861     0.40100
C1180       C  0.30397573  0.87531762  0.87733579     0.36700
C1181       C  0.34546677  0.95392093  0.84737207     0.36400
C1182       C  0.47378823  0.86712473  0.89653151     0.37200
N1183       N  0.36981570  0.79235407  0.70728243    -0.43600
N1184       N  0.29372614  0.88724479  0.90736301    -0.44100
N1185       N  0.49926570  0.84867399  0.90667017    -0.41400
N1186       N  0.31987427  0.97224769  0.83735484    -0.42900
H1187       H  0.40068294  0.98105538  0.89228669     0.13300
H1188       H  0.41786931  0.83940446  0.85308445     0.09800
H1189       H  0.39303422  0.85663139  0.77999178     0.10900
H1190       H  0.26421538  0.82992266  0.82874624     0.16700
C1191       C  0.34887686  0.92902634  0.60428420    -0.01500
C1192       C  0.35218630  0.91900741  0.64397752     0.07100
C1193       C  0.38468873  0.93128750  0.66424830    -0.07500
C1194       C  0.41504382  0.94937180  0.64447550     0.04500
C1195       C  0.41390676  0.95336392  0.60329836    -0.14700
C1196       C  0.37943911  0.94552851  0.58440331    -0.08100
C1197       C  0.32537943  0.88987437  0.66191411     0.05400
C1198       C  0.32178865  0.85235147  0.64388774    -0.09200
C1199       C  0.30033855  0.82179455  0.66039109     0.00400
C1200       C  0.28199569  0.82794612  0.69690264     0.00300
C1201       C  0.28224237  0.86720177  0.71258164    -0.12700
C1202       C  0.30439022  0.89764564  0.69608670     0.00800
C1203       C  0.30055670  0.78438785  0.63932600     0.40100
C1204       C  0.30559968  0.93627139  0.71504860     0.36700
C1205       C  0.31469703  0.92102947  0.58289721     0.36400
C1206       C  0.44693204  0.96265441  0.66708258     0.37200
N1207       N  0.30150660  0.75567650  0.62029259    -0.43600
N1208       N  0.30655014  0.96722368  0.73033595    -0.44100
N1209       N  0.47235641  0.97341599  0.68543072    -0.41400
N1210       N  0.28722198  0.91461179  0.56594488    -0.42900
H1211       H  0.37659936  0.95073327  0.55333915     0.13300
H1212       H  0.38717786  0.92492299  0.69512565     0.09800
H1213       H  0.33733261  0.84628252  0.61717285     0.10900
H1214       H  0.26700776  0.87350318  0.73937809     0.16700
C1215       C  0.33458475  0.59132723  0.88978611    -0.01500
C1216       C  0.34556245  0.59150671  0.85005164     0.07100
C1217       C  0.37357800  0.56535822  0.83727274    -0.07500
C1218       C  0.39262083  0.54139163  0.86380945     0.04500
C1219       C  0.38262704  0.54218021  0.90390868    -0.14700
C1220       C  0.35285658  0.56638234  0.91628076    -0.08100
C1221       C  0.33291810  0.62307317  0.82303732     0.05400
C1222       C  0.34414215  0.66228363  0.83102559    -0.09200
C1223       C  0.33238550  0.69373925  0.80773340     0.00400
C1224       C  0.30883886  0.68637762  0.77508788     0.00300
C1225       C  0.30019692  0.64635856  0.76528728    -0.12700
C1226       C  0.31157404  0.61492007  0.78924700     0.00800
C1227       C  0.34565027  0.73294722  0.81858830     0.40100
C1228       C  0.29890122  0.57496614  0.78017947     0.36700
C1229       C  0.30628376  0.61831984  0.90440238     0.36400
C1230       C  0.42461824  0.51939733  0.84938418     0.37200
N1231       N  0.35738042  0.76339151  0.82917375    -0.43600
N1232       N  0.28853008  0.54294637  0.77313365    -0.44100
N1233       N  0.45036606  0.50269929  0.83677676    -0.41400
N1234       N  0.28380093  0.64021034  0.91611393    -0.42900
H1235       H  0.34575796  0.56800968  0.94710181     0.13300
H1236       H  0.38261242  0.56599768  0.80698282     0.09800
H1237       H  0.36190122  0.66840202  0.85615013     0.10900
H1238       H  0.28171339  0.63977007  0.74093528     0.16700
C1239       C  0.27754725  0.65639983  0.62536475    -0.01500
C1240       C  0.31521998  0.64552933  0.62162659     0.07100
C1241       C  0.34156833  0.65848999  0.64934708    -0.07500
C1242       C  0.33102092  0.68285480  0.68063097     0.04500
C1243       C  0.29306742  0.69403827  0.68479708    -0.14700
C1244       C  0.26688037  0.68076056  0.65659308    -0.08100
C1245       C  0.32888891  0.62102290  0.58901676     0.05400
C1246       C  0.35545974  0.63808765  0.56404853    -0.09200
C1247       C  0.37960389  0.61395448  0.54238326     0.00400
C1248       C  0.37653781  0.57214917  0.54547455     0.00300
C1249       C  0.34606705  0.55549846  0.56575128    -0.12700
C1250       C  0.32250112  0.57965393  0.58808367     0.00800
C1251       C  0.40849876  0.63285505  0.51934626     0.40100
C1252       C  0.29509426  0.56099291  0.61316443     0.36700
C1253       C  0.24978584  0.64385697  0.59701343     0.36400
C1254       C  0.36030025  0.69717452  0.70629582     0.37200
N1255       N  0.43159143  0.64805429  0.50087661    -0.43600
N1256       N  0.27317872  0.54592942  0.63320880    -0.44100
N1257       N  0.38435633  0.70774333  0.72664268    -0.41400
N1258       N  0.22770551  0.63341700  0.57430705    -0.42900
H1259       H  0.23815022  0.69040565  0.65776429     0.13300
H1260       H  0.37075161  0.64993707  0.64606471     0.09800
H1261       H  0.35960091  0.67016012  0.56437431     0.10900
H1262       H  0.34293357  0.52339896  0.56761329     0.16700
C1263       C  0.62427598  0.67940283  0.82734992    -0.01500
C1264       C  0.63690413  0.66198263  0.86197454     0.07100
C1265       C  0.67494908  0.66235062  0.87087966    -0.07500
C1266       C  0.70110972  0.67768752  0.84496566     0.04500
C1267       C  0.68924726  0.69388774  0.80896297    -0.14700
C1268       C  0.65037407  0.69538193  0.80130106    -0.08100
C1269       C  0.61263792  0.63705811  0.88631194     0.05400
C1270       C  0.62065837  0.59628130  0.88688220    -0.09200
C1271       C  0.60027715  0.57068577  0.91040993     0.00400
C1272       C  0.57067599  0.58597697  0.93346489     0.00300
C1273       C  0.56256886  0.62689319  0.93298092    -0.12700
C1274       C  0.58381225  0.65271776  0.90996862     0.00800
C1275       C  0.60952888  0.52878552  0.90875230     0.40100
C1276       C  0.57627130  0.69494446  0.91173521     0.36700
C1277       C  0.58492214  0.68036372  0.81767082     0.36400
C1278       C  0.73951845  0.67412197  0.85692097     0.37200
N1279       N  0.61740953  0.49537788  0.90711612    -0.43600
N1280       N  0.57030315  0.72881207  0.91316743    -0.44100
N1281       N  0.76907812  0.67029643  0.87005564    -0.41400
N1282       N  0.55325176  0.68144394  0.81044898    -0.42900
H1283       H  0.64009598  0.70914548  0.77498611     0.13300
H1284       H  0.68438953  0.64870881  0.89775001     0.09800
H1285       H  0.64308105  0.58443306  0.86869375     0.10900
H1286       H  0.53985690  0.63862652  0.95078599     0.16700
C1287       C  0.63781460  0.69042421  0.66478165    -0.01500
C1288       C  0.62548503  0.65191647  0.67397100     0.07100
C1289       C  0.64340244  0.63079800  0.70371429    -0.07500
C1290       C  0.67294126  0.64822128  0.72498724     0.04500
C1291       C  0.68407563  0.68788173  0.71709554    -0.14700
C1292       C  0.66755445  0.70721076  0.68525596    -0.08100
C1293       C  0.59743657  0.63172046  0.64910849     0.05400
C1294       C  0.60640282  0.62533864  0.60975110    -0.09200
C1295       C  0.58131325  0.60637107  0.58449521     0.00400
C1296       C  0.54635789  0.59261336  0.59889826     0.00300
C1297       C  0.53700537  0.60046041  0.63829543    -0.12700
C1298       C  0.56226056  0.61974450  0.66339077     0.00800
C1299       C  0.59345594  0.60081443  0.54459341     0.40100
C1300       C  0.55156853  0.62671747  0.70356655     0.36700
C1301       C  0.62046285  0.71336124  0.63424276     0.36400
C1302       C  0.69313991  0.62371850  0.75213056     0.37200
N1303       N  0.60449155  0.59695436  0.51298311    -0.43600
N1304       N  0.54283500  0.63212698  0.73576028    -0.44100
N1305       N  0.70928373  0.60388907  0.77377806    -0.41400
N1306       N  0.60649838  0.73180417  0.60993229    -0.42900
H1307       H  0.67789775  0.73555547  0.67546172     0.13300
H1308       H  0.63515876  0.60023406  0.70931119     0.09800
H1309       H  0.63355201  0.63492539  0.59881914     0.10900
H1310       H  0.51040365  0.59033970  0.65006373     0.16700
C1311       C  0.58033610  0.39651246  0.85873038    -0.01500
C1312       C  0.60583452  0.37085270  0.87676128     0.07100
C1313       C  0.60467539  0.36565740  0.91725629    -0.07500
C1314       C  0.58073692  0.38880088  0.94050504     0.04500
C1315       C  0.55868949  0.41855822  0.92286242    -0.14700
C1316       C  0.55712633  0.42025995  0.88181724    -0.08100
C1317       C  0.63639208  0.35275489  0.85414039     0.05400
C1318       C  0.66454885  0.37789437  0.83962052    -0.09200
C1319       C  0.69312501  0.36262484  0.81606733     0.00400
C1320       C  0.69318118  0.32172631  0.80649940     0.00300
C1321       C  0.66619804  0.29639547  0.82295030    -0.12700
C1322       C  0.63765696  0.31160281  0.84650690     0.00800
C1323       C  0.72266501  0.38908155  0.80346732     0.40100
C1324       C  0.60925059  0.28482371  0.86115852     0.36700
C1325       C  0.57839211  0.39972630  0.81668833     0.36400
C1326       C  0.58037373  0.38191720  0.98205569     0.37200
N1327       N  0.74651867  0.41045912  0.79413690    -0.43600
N1328       N  0.58648947  0.26333681  0.87286202    -0.44100
N1329       N  0.57980515  0.37577461  0.01525505    -0.41400
N1330       N  0.57671761  0.40207284  0.78302192    -0.42900
H1331       H  0.53892996  0.44144971  0.86760803     0.13300
H1332       H  0.62365122  0.34476063  0.93079745     0.09800
H1333       H  0.66397873  0.40952599  0.84659863     0.10900
H1334       H  0.66659220  0.26487699  0.81646361     0.16700
C1335       C  0.63371074  0.41541596  0.60886860    -0.01500
C1336       C  0.62151703  0.41160886  0.64803879     0.07100
C1337       C  0.58729474  0.42879754  0.65937350    -0.07500
C1338       C  0.56506589  0.44901223  0.63241467     0.04500
C1339       C  0.57736098  0.45266792  0.59327124    -0.14700
C1340       C  0.61172043  0.43578826  0.58215787    -0.08100
C1341       C  0.64478091  0.39069235  0.67732050     0.05400
C1342       C  0.68244901  0.40195790  0.68135386    -0.09200
C1343       C  0.70745583  0.37878146  0.70247299     0.00400
C1344       C  0.69456833  0.34444489  0.72169290     0.00300
C1345       C  0.65596647  0.33606827  0.72178984    -0.12700
C1346       C  0.63104547  0.35844305  0.69941712     0.00800
C1347       C  0.74562792  0.39233899  0.70442425     0.40100
C1348       C  0.59213780  0.34639383  0.69822549     0.36700
C1349       C  0.66875032  0.39897520  0.59493987     0.36400
C1350       C  0.53076134  0.46705646  0.64632379     0.37200
N1351       N  0.77524403  0.40637122  0.70548722    -0.43600
N1352       N  0.56088909  0.33690324  0.69764652    -0.44100
N1353       N  0.50332494  0.48151416  0.65762273    -0.41400
N1354       N  0.69699104  0.38652068  0.58350357    -0.42900
H1355       H  0.62157610  0.43842601  0.55227646     0.13300
H1356       H  0.57822335  0.42706397  0.68957460     0.09800
H1357       H  0.69274279  0.42820157  0.66644047     0.10900
H1358       H  0.64556109  0.31091309  0.73802515     0.16700
C1359       C  0.34850938  0.35302104  0.79821994    -0.01500
C1360       C  0.37374234  0.33209295  0.82198426     0.07100
C1361       C  0.36729023  0.29183497  0.82945974    -0.07500
C1362       C  0.33495768  0.27302105  0.81615468     0.04500
C1363       C  0.31197548  0.29207722  0.78852200    -0.14700
C1364       C  0.31887975  0.33250776  0.78044916    -0.08100
C1365       C  0.40059157  0.35299550  0.84760533     0.05400
C1366       C  0.39501654  0.34932826  0.88792850    -0.09200
C1367       C  0.41567184  0.37198995  0.91428773     0.00400
C1368       C  0.44197025  0.39998149  0.90005780     0.00300
C1369       C  0.44982834  0.40128193  0.85987857    -0.12700
C1370       C  0.42945866  0.37771503  0.83348884     0.00800
C1371       C  0.40644924  0.36811947  0.95528610     0.40100
C1372       C  0.43766170  0.38058443  0.79230397     0.36700
C1373       C  0.35026577  0.39583498  0.79457066     0.36400
C1374       C  0.32296530  0.23949637  0.83868266     0.37200
N1375       N  0.39897369  0.36488825  0.98803520    -0.43600
N1376       N  0.44425698  0.38339147  0.75933045    -0.44100
N1377       N  0.31388915  0.21502839  0.86026802    -0.41400
N1378       N  0.35146266  0.43020141  0.79221861    -0.42900
H1379       H  0.30039400  0.34839682  0.76106109     0.13300
H1380       H  0.38514536  0.27660094  0.85013976     0.09800
H1381       H  0.37289800  0.33009947  0.89889056     0.10900
H1382       H  0.47059861  0.42208244  0.84897065     0.16700
C1383       C  0.38355882  0.41334779  0.65453249    -0.01500
C1384       C  0.38895917  0.37187566  0.64991054     0.07100
C1385       C  0.41782802  0.35784561  0.62563909    -0.07500
C1386       C  0.43903043  0.38431749  0.60339187     0.01500
C1387       C  0.43064502  0.42542636  0.60463292    -0.14700
C1388       C  0.40443717  0.43979148  0.63191005    -0.08100
C1389       C  0.36195669  0.34300633  0.66634896     0.05400
C1390       C  0.32424803  0.34605374  0.65540418    -0.09200
C1391       C  0.29683336  0.32184365  0.67213254     0.00400
C1392       C  0.30711777  0.29401074  0.70073552     0.00300
C1393       C  0.34555612  0.28747460  0.70765036    -0.12700
C1394       C  0.37289793  0.31231200  0.69149070     0.00800
C1395       C  0.25891026  0.32673145  0.65879044     0.40100
C1396       C  0.41154626  0.30706709  0.70273883     0.36700
C1397       C  0.35542328  0.42930736  0.68076596     0.36400
C1398       C  0.46858638  0.36847796  0.57888098     0.37200
N1399       N  0.22928050  0.33128713  0.64596068    -0.43600
N1400       N  0.44255456  0.30283745  0.71167407    -0.44100
N1401       N  0.49240207  0.35589504  0.55936302    -0.41400
N1402       N  0.33272027  0.44208015  0.70157830    -0.42900
H1403       H  0.39829310  0.47141217  0.63359511     0.13300
H1404       H  0.42249578  0.32604282  0.62247674     0.09800
H1405       H  0.31612656  0.36811756  0.63411745     0.10900
H1406       H  0.35407713  0.26436687  0.72761663     0.16700
loop_ 
_geom_bond_atom_site_label_1 
_geom_bond_atom_site_label_2 
_geom_bond_distance 
_geom_bond_site_symmetry_2 
_ccdc_geom_bond_type 
O1            C9   1.263       .  A
O1          Co21   1.991       .  S
O2           C10   1.277       .  A
O2          Co22   2.013       .  S
O3           C11   1.252       .  A
O3          Co23   1.935       .  S
O4           C12   1.263       .  A
O4          Co24   1.873       .  S
O5           C11   1.273       .  A
O5          Co22   2.014       .  S
O6           C12   1.300       .  A
O6          Co21   2.137       .  S
O7           C10   1.268       .  A
O7         Co727   1.963       .  S
O8            C9   1.259       .  A
O8         Co726   1.974   1_554  S
C9          C684   1.472       .  S
C10         C612   1.482       .  S
C11         C665   1.455       .  S
C12         C636   1.482       .  S
O13          C26   1.268       .  A
O13         Co21   1.885       .  S
O14          C27   1.260       .  A
O14         Co22   1.954       .  S
O15          C28   1.275       .  A
O15        Co726   2.002   1_554  S
O16          C29   1.263       .  A
O16        Co727   1.990       .  S
O17          C29   1.256       .  A
O17         Co22   1.966       .  S
O18          C28   1.272       .  A
O18         Co21   1.965       .  S
O19          C26   1.296       .  A
O19         Co24   2.110       .  S
O20          C27   1.276       .  A
O20         Co23   2.041       .  S
Co21         O25   1.978   1_554  S
Co22        O728   2.007       .  S
Co23        O711   1.969       .  S
Co23        O718   2.001       .  S
Co23        O728   1.996       .  S
Co24        O710   1.965   1_554  S
Co24        O719   1.988   1_554  S
Co24         O25   1.975   1_554  S
O25        Co725   2.010       .  S
O25        Co726   2.003       .  S
C26         C593   1.485       .  S
C27         C516   1.470       .  S
C28         C545   1.467       .  S
C29         C569   1.463       .  S
O30          C38   1.256       .  A
O30         Co50   1.972   1_565  S
O31          C39   1.262       .  A
O31         Co51   1.894       .  S
O32          C40   1.286       .  A
O32        Co755   2.053       .  S
O33          C41   1.280       .  A
O33         Co53   2.056   1_554  S
O34          C40   1.269       .  A
O34         Co51   1.960   1_565  S
O35          C41   1.258       .  A
O35         Co50   1.965       .  S
O36          C39   1.299       .  A
O36        Co756   2.125       .  S
O37          C38   1.270       .  A
O37         Co52   2.035       .  S
C38         C420   1.489       .  S
C39         C324   1.501       .  S
C40         C444   1.493       .  S
C41         C348   1.501       .  S
O42          C55   1.273       .  A
O42         Co50   2.018       .  S
O43          C56   1.258       .  A
O43         Co51   2.006   1_565  S
O44          C57   1.261       .  A
O44         Co52   1.948       .  S
O45          C58   1.273       .  A
O45        Co756   1.919       .  S
O46          C58   1.297       .  A
O46         Co51   2.105       .  S
O47          C57   1.281       .  A
O47         Co50   2.051   1_565  S
O48          C55   1.268       .  A
O48         Co53   1.982   1_554  S
O49          C56   1.253       .  A
O49        Co755   1.982       .  S
Co50         O54   2.029   1_545  S
Co51        O757   2.008       .  S
Co52        O735   2.048   1_554  S
Co52        O752   1.974   1_554  S
Co52         O54   2.032       .  S
Co53        O739   2.116       .  S
Co53        O748   1.916       .  S
Co53         O54   2.024   1_546  S
O54        Co754   2.006   1_564  S
C55         C372   1.500       .  S
C56         C468   1.473       .  S
C57         C492   1.502       .  S
C58         C401   1.508       .  S
O59          C67   1.300       .  A
O59         Co79   2.112       .  S
O60          C68   1.275       .  A
O60        Co783   2.043       .  S
O61          C69   1.267       .  A
O61         Co81   1.981       .  S
O62          C70   1.248       .  A
O62         Co82   1.961   1_655  S
O63          C69   1.281       .  A
O63         Co80   2.056       .  S
O64          C70   1.268       .  A
O64        Co782   2.051       .  S
O65          C68   1.255       .  A
O65         Co82   1.949       .  S
O66          C67   1.265       .  A
O66         Co81   1.902   1_655  S
C67         C305   1.498       .  S
C68         C156   1.489       .  S
C69         C137   1.502       .  S
C70         C281   1.512       .  S
O71          C84   1.266       .  A
O71        Co782   1.990       .  S
O72          C85   1.253       .  A
O72         Co80   1.964       .  S
O73          C86   1.292       .  A
O73         Co81   2.085   1_655  S
O74          C87   1.273       .  A
O74         Co82   2.032       .  S
O75          C87   1.257       .  A
O75        Co783   1.960       .  S
O76          C86   1.268       .  A
O76         Co79   1.900       .  S
O77          C84   1.280       .  A
O77         Co82   2.048   1_655  S
O78          C85   1.265       .  A
O78         Co81   2.029       .  S
Co79        O767   2.043   1_554  S
Co79        O774   1.991   1_554  S
Co79         O83   2.043   1_654  S
Co80        O763   2.048   1_554  S
Co80        O778   1.964   1_554  S
Co80         O83   2.052   1_554  S
Co81         O83   2.028   1_554  S
Co82        O786   2.046       .  S
O83        Co785   2.031       .  S
C84         C257   1.517       .  S
C85         C204   1.494       .  S
C86         C228   1.482       .  S
C87         C185   1.495       .  S
C88          H89   1.103       .  S
C88          C94   1.545       .  S
C88          C93   1.548       .  S
C88          C92   1.544       .  S
C90          H91   1.110       .  S
C90          C96   1.552       .  S
C90          C95   1.532       .  S
C90          C97   1.546       .  S
C92          C95   1.384       .  D
C92         C660   1.490       .  S
C93          C96   1.386       .  D
C93         C396   1.510       .  S
C94          C97   1.376       .  D
C94         C180   1.520       .  S
C95         C689   1.495       .  S
C96         C377   1.512       .  S
C97         C209   1.502       .  S
C98          H99   1.104       .  S
C98         C104   1.543       .  S
C98         C103   1.553       .  S
C98         C102   1.544       .  S
C100        H101   1.111       .  S
C100        C106   1.555       .  S
C100        C105   1.528       .  S
C100        C107   1.550       .  S
C102        C105   1.367       .  D
C102        C641   1.491       .  S
C103        C106   1.392       .  D
C103        C353   1.533       .  S
C104        C107   1.381       .  D
C104        C233   1.488       .  S
C105        C617   1.472       .  S
C106        C329   1.507       .  S
C107        C252   1.522       .  S
C108        H109   1.107       .  S
C108        C114   1.546       .  S
C108        C113   1.547       .  S
C108        C112   1.545       .  S
C110        H111   1.111       .  S
C110        C116   1.535       .  S
C110        C115   1.535       .  S
C110        C117   1.549       .  S
C112        C115   1.376       .  D
C112        C540   1.487       .  S
C113        C116   1.379       .  D
C113        C497   1.517       .  S
C114        C117   1.387       .  D
C114        C132   1.509       .  S
C115        C521   1.485       .  S
C116        C473   1.496       .  S
C117        C161   1.512       .  S
C118        H119   1.108       .  S
C118        C124   1.544       .  S
C118        C123   1.541       .  S
C118        C122   1.541       .  S
C120        H121   1.106       .  S
C120        C126   1.551       .  S
C120        C125   1.549       .  S
C120        C127   1.549       .  S
C122        C125   1.388       .  D
C122        C564   1.494       .  S
C123        C126   1.376       .  D
C123        C449   1.504       .  S
C124        C127   1.382       .  D
C124        C276   1.508       .  S
C125        C588   1.503       .  S
C126        C425   1.503       .  S
C127        C300   1.520       .  S
C128        C129   1.419       .  A
C128        C133   1.408       .  A
C128        C142   1.443       .  S
C129        C134   1.515       .  S
C129        C130   1.409       .  A
C130        C131   1.412       .  A
C130        H149   1.084       .  S
C131        C132   1.414       .  A
C131        C143   1.444       .  S
C132        C133   1.407       .  A
C133        H148   1.084       .  S
C134        C135   1.404       .  A
C134        C139   1.421       .  A
C135        C136   1.406       .  A
C135        H150   1.085       .  S
C136        C137   1.416       .  A
C136        C140   1.441       .  S
C137        C138   1.407       .  A
C138        C139   1.417       .  A
C138        H151   1.084       .  S
C139        C141   1.443       .  S
C140        N144   1.156       .  T
C141        N145   1.157       .  T
C142        N147   1.157       .  T
C143        N146   1.157       .  T
C152        C153   1.416       .  A
C152        C157   1.401       .  A
C152        C166   1.445       .  S
C153        C158   1.511       .  S
C153        C154   1.415       .  A
C154        C155   1.410       .  A
C154        H173   1.083       .  S
C155        C156   1.409       .  A
C155        C167   1.442       .  S
C156        C157   1.406       .  A
C157        H172   1.085       .  S
C158        C159   1.414       .  A
C158        C163   1.413       .  A
C159        C160   1.410       .  A
C159        H174   1.084       .  S
C160        C161   1.411       .  A
C160        C164   1.442       .  S
C161        C162   1.408       .  A
C162        C163   1.400       .  A
C162        H175   1.075       .  S
C163        C165   1.445       .  S
C164        N168   1.157       .  T
C165        N169   1.157       .  T
C166        N171   1.157       .  T
C167        N170   1.157       .  T
C176        C177   1.407       .  A
C176        C181   1.409       .  A
C176        C190   1.442       .  S
C177        C182   1.492       .  S
C177        C178   1.397       .  A
C178        C179   1.402       .  A
C178        H197   1.086       .  S
C179        C180   1.423       .  A
C179        C191   1.439       .  S
C180        C181   1.414       .  A
C181        H196   1.084       .  S
C182        C183   1.400       .  A
C182        C187   1.413       .  A
C183        C184   1.404       .  A
C183        H198   1.085       .  S
C184        C185   1.420       .  A
C184        C188   1.445       .  S
C185        C186   1.405       .  A
C186        C187   1.407       .  A
C186        H199   1.084       .  S
C187        C189   1.442       .  S
C188        N192   1.157       .  T
C189        N193   1.156       .  T
C190        N195   1.157       .  T
C191        N194   1.157       .  T
C200        C201   1.408       .  A
C200        C205   1.397       .  A
C200        C214   1.444       .  S
C201        C206   1.492       .  S
C201        C202   1.408       .  A
C202        C203   1.411       .  A
C202        H221   1.084       .  S
C203        C204   1.415       .  A
C203        C215   1.442       .  S
C204        C205   1.408       .  A
C205        H220   1.085       .  S
C206        C207   1.397       .  A
C206        C211   1.412       .  A
C207        C208   1.401       .  A
C207        H222   1.084       .  S
C208        C209   1.421       .  A
C208        C212   1.441       .  S
C209        C210   1.404       .  A
C210        C211   1.408       .  A
C210        H223   1.084       .  S
C211        C213   1.442       .  S
C212        N216   1.156       .  T
C213        N217   1.157       .  T
C214        N219   1.157       .  T
C215        N218   1.157       .  T
C224        C225   1.409       .  A
C224        C229   1.397       .  A
C224        C238   1.444       .  S
C225        C230   1.478       .  S
C225        C226   1.399       .  A
C226        C227   1.400       .  A
C226        H245   1.085       .  S
C227        C228   1.417       .  A
C227        C239   1.443       .  S
C228        C229   1.405       .  A
C229        H244   1.085       .  S
C230        C231   1.401       .  A
C230        C235   1.407       .  A
C231        C232   1.401       .  A
C231        H246   1.085       .  S
C232        C233   1.412       .  A
C232        C236   1.444       .  S
C233        C234   1.404       .  A
C234        C235   1.398       .  A
C234        H247   1.083       .  S
C235        C237   1.445       .  S
C236        N240   1.157       .  T
C237        N241   1.157       .  T
C238        N243   1.157       .  T
C239        N242   1.157   1_655  T
C248        C249   1.416       .  A
C248        C253   1.405       .  A
C248        C262   1.444       .  S
C249        C254   1.515       .  S
C249        C250   1.411       .  A
C250        C251   1.417       .  A
C250        H269   1.084       .  S
C251        C252   1.419       .  A
C251        C263   1.443       .  S
C252        C253   1.407       .  A
C253        H268   1.081       .  S
C254        C255   1.403       .  A
C254        C259   1.416       .  A
C255        C256   1.408       .  A
C255        H270   1.085       .  S
C256        C257   1.423       .  A
C256        C260   1.438       .  S
C257        C258   1.411       .  A
C258        C259   1.413       .  A
C258        H271   1.084       .  S
C259        C261   1.440       .  S
C260        N264   1.155       .  T
C261        N265   1.156       .  T
C262        N267   1.157       .  T
C263        N266   1.157       .  T
C272        C273   1.416       .  A
C272        C277   1.409       .  A
C272        C286   1.443       .  S
C273        C278   1.510       .  S
C273        C274   1.410       .  A
C274        C275   1.409       .  A
C274        H293   1.084       .  S
C275        C276   1.412       .  A
C275        C287   1.442       .  S
C276        C277   1.410       .  A
C277        H292   1.084       .  S
C278        C279   1.401       .  A
C278        C283   1.419       .  A
C279        C280   1.404       .  A
C279        H294   1.085       .  S
C280        C281   1.427       .  A
C280        C284   1.446       .  S
C281        C282   1.408       .  A
C282        C283   1.414       .  A
C282        H295   1.084       .  S
C283        C285   1.443       .  S
C284        N288   1.158   1_655  T
C285        N289   1.157       .  T
C286        N291   1.157       .  T
C287        N290   1.157       .  T
C296        C297   1.409       .  A
C296        C301   1.409       .  A
C296        C310   1.442       .  S
C297        C302   1.496       .  S
C297        C298   1.396       .  A
C298        C299   1.402       .  A
C298        H317   1.086       .  S
C299        C300   1.426       .  A
C299        C311   1.439       .  S
C300        C301   1.413       .  A
C301        H316   1.084       .  S
C302        C303   1.402       .  A
C302        C307   1.412       .  A
C303        C304   1.405       .  A
C303        H318   1.085       .  S
C304        C305   1.420       .  A
C304        C308   1.444       .  S
C305        C306   1.407       .  A
C306        C307   1.407       .  A
C306        H319   1.084       .  S
C307        C309   1.443       .  S
C308        N312   1.157       .  T
C309        N313   1.157       .  T
C310        N315   1.157       .  T
C311        N314   1.157       .  T
C320        C321   1.407       .  A
C320        C325   1.402       .  A
C320        C334   1.444       .  S
C321        C326   1.492       .  S
C321        C322   1.405       .  A
C322        C323   1.410       .  A
C322        H341   1.085       .  S
C323        C324   1.419       .  A
C323        C335   1.443       .  S
C324        C325   1.412       .  A
C325        H340   1.084       .  S
C326        C327   1.399       .  A
C326        C331   1.409       .  A
C327        C328   1.403       .  A
C327        H342   1.085       .  S
C328        C329   1.422       .  A
C328        C332   1.442       .  S
C329        C330   1.409       .  A
C330        C331   1.407       .  A
C330        H343   1.085       .  S
C331        C333   1.443       .  S
C332        N336   1.157       .  T
C333        N337   1.157       .  T
C334        N339   1.157       .  T
C335        N338   1.157       .  T
C344        C345   1.412       .  A
C344        C349   1.407       .  A
C344        C358   1.444       .  S
C345        C350   1.509       .  S
C345        C346   1.411       .  A
C346        C347   1.412       .  A
C346        H365   1.084       .  S
C347        C348   1.413       .  A
C347        C359   1.443       .  S
C348        C349   1.412       .  A
C349        H364   1.085       .  S
C350        C351   1.396       .  A
C350        C355   1.416       .  A
C351        C352   1.405       .  A
C351        H366   1.086       .  S
C352        C353   1.430       .  A
C352        C356   1.437       .  S
C353        C354   1.414       .  A
C354        C355   1.414       .  A
C354        H367   1.083       .  S
C355        C357   1.443       .  S
C356        N360   1.156       .  T
C357        N361   1.157       .  T
C358        N363   1.157       .  T
C359        N362   1.157       .  T
C368        C369   1.408       .  A
C368        C373   1.404       .  A
C368        C382   1.443       .  S
C369        C374   1.489       .  S
C369        C370   1.400       .  A
C370        C371   1.404       .  A
C370        H389   1.085       .  S
C371        C372   1.423       .  A
C371        C383   1.445       .  S
C372        C373   1.410       .  A
C373        H388   1.084       .  S
C374        C375   1.405       .  A
C374        C379   1.406       .  A
C375        C376   1.411       .  A
C375        H390   1.084       .  S
C376        C377   1.416       .  A
C376        C380   1.442       .  S
C377        C378   1.409       .  A
C378        C379   1.398       .  A
C378        H391   1.076       .  S
C379        C381   1.446       .  S
C380        N384   1.157       .  T
C381        N385   1.157       .  T
C382        N387   1.157       .  T
C383        N386   1.158       .  T
C392        C393   1.413       .  A
C392        C397   1.408       .  A
C392        C406   1.443       .  S
C393        C398   1.504       .  S
C393        C394   1.408       .  A
C394        C395   1.413       .  A
C394        H413   1.084       .  S
C395        C396   1.413       .  A
C395        C407   1.442       .  S
C396        C397   1.410       .  A
C397        H412   1.084       .  S
C398        C399   1.407       .  A
C398        C403   1.409       .  A
C399        C400   1.412       .  A
C399        H414   1.083       .  S
C400        C401   1.419       .  A
C400        C404   1.444       .  S
C401        C402   1.412       .  A
C402        C403   1.409       .  A
C402        H415   1.084       .  S
C403        C405   1.443       .  S
C404        N408   1.158       .  T
C405        N409   1.157       .  T
C406        N411   1.157       .  T
C407        N410   1.157       .  T
C416        C417   1.424       .  A
C416        C421   1.409       .  A
C416        C430   1.443       .  S
C417        C422   1.520       .  S
C417        C418   1.411       .  A
C418        C419   1.404       .  A
C418        H437   1.082       .  S
C419        C420   1.409       .  A
C419        C431   1.442       .  S
C420        C421   1.402       .  A
C421        H436   1.085       .  S
C422        C423   1.416       .  A
C422        C427   1.422       .  A
C423        C424   1.410       .  A
C423        H438   1.083       .  S
C424        C425   1.405       .  A
C424        C428   1.442       .  S
C425        C426   1.402       .  A
C426        C427   1.403       .  A
C426        H439   1.081       .  S
C427        C429   1.445       .  S
C428        N432   1.157       .  T
C429        N433   1.158       .  T
C430        N435   1.157       .  T
C431        N434   1.156       .  T
C440        C441   1.411       .  A
C440        C445   1.403       .  A
C440        C454   1.444       .  S
C441        C446   1.502       .  S
C441        C442   1.411       .  A
C442        C443   1.409       .  A
C442        H461   1.084       .  S
C443        C444   1.412       .  A
C443        C455   1.443       .  S
C444        C445   1.409       .  A
C445        H460   1.085       .  S
C446        C447   1.413       .  A
C446        C451   1.409       .  A
C447        C448   1.414       .  A
C447        H462   1.084       .  S
C448        C449   1.409       .  A
C448        C452   1.442       .  S
C449        C450   1.401       .  A
C450        C451   1.396       .  A
C450        H463   1.070       .  S
C451        C453   1.444       .  S
C452        N456   1.157       .  T
C453        N457   1.157       .  T
C454        N459   1.157       .  T
C455        N458   1.157       .  T
C464        C465   1.412       .  A
C464        C469   1.404       .  A
C464        C478   1.444       .  S
C465        C470   1.488       .  S
C465        C466   1.405       .  A
C466        C467   1.399       .  A
C466        H485   1.085       .  S
C467        C468   1.408       .  A
C467        C479   1.444       .  S
C468        C469   1.404       .  A
C469        H484   1.084       .  S
C470        C471   1.399       .  A
C470        C475   1.413       .  A
C471        C472   1.398       .  A
C471        H486   1.085       .  S
C472        C473   1.418       .  A
C472        C476   1.442       .  S
C473        C474   1.404       .  A
C474        C475   1.404       .  A
C474        H487   1.085       .  S
C475        C477   1.443       .  S
C476        N480   1.157       .  T
C477        N481   1.157       .  T
C478        N483   1.157       .  T
C479        N482   1.157       .  T
C488        C489   1.409       .  A
C488        C493   1.396       .  A
C488        C502   1.445       .  S
C489        C494   1.497       .  S
C489        C490   1.410       .  A
C490        C491   1.413       .  A
C490        H509   1.084       .  S
C491        C492   1.417       .  A
C491        C503   1.443       .  S
C492        C493   1.411       .  A
C493        H508   1.084       .  S
C494        C495   1.401       .  A
C494        C499   1.409       .  A
C495        C496   1.398       .  A
C495        H510   1.086       .  S
C496        C497   1.421       .  A
C496        C500   1.440       .  S
C497        C498   1.416       .  A
C498        C499   1.410       .  A
C498        H511   1.084       .  S
C499        C501   1.443       .  S
C500        N504   1.157       .  T
C501        N505   1.157       .  T
C502        N507   1.157       .  T
C503        N506   1.157       .  T
C512        C513   1.418       .  A
C512        C517   1.399       .  A
C512        C526   1.445       .  S
C513        C518   1.491       .  S
C513        C514   1.403       .  A
C514        C515   1.398       .  A
C514        H533   1.084       .  S
C515        C516   1.408       .  A
C515        C527   1.438       .  S
C516        C517   1.400       .  A
C517        H532   1.083       .  S
C518        C519   1.402       .  A
C518        C523   1.414       .  A
C519        C520   1.394       .  A
C519        H534   1.085       .  S
C520        C521   1.411       .  A
C520        C524   1.441       .  S
C521        C522   1.405       .  A
C522        C523   1.401       .  A
C522        H535   1.084       .  S
C523        C525   1.443       .  S
C524        N528   1.156       .  T
C525        N529   1.157       .  T
C526        N531   1.157       .  T
C527        N530   1.155       .  T
C536        C537   1.401       .  A
C536        C541   1.395       .  A
C536        C550   1.443       .  S
C537        C542   1.470       .  S
C537        C538   1.400       .  A
C538        C539   1.395       .  A
C538        H557   1.086       .  S
C539        C540   1.414       .  A
C539        C551   1.442       .  S
C540        C541   1.408       .  A
C541        H556   1.077       .  S
C542        C543   1.402       .  A
C542        C547   1.407       .  A
C543        C544   1.395       .  A
C543        H558   1.085       .  S
C544        C545   1.408       .  A
C544        C548   1.444       .  S
C545        C546   1.405       .  A
C546        C547   1.395       .  A
C546        H559   1.085       .  S
C547        C549   1.445       .  S
C548        N552   1.157   1_554  T
C549        N553   1.157       .  T
C550        N555   1.157       .  T
C551        N554   1.157       .  T
C560        C561   1.404       .  A
C560        C565   1.398       .  A
C560        C574   1.443       .  S
C561        C566   1.467       .  S
C561        C562   1.392       .  A
C562        C563   1.387       .  A
C562        H581   1.087       .  S
C563        C564   1.417       .  A
C563        C575   1.436       .  S
C564        C565   1.412       .  A
C565        H580   1.083       .  S
C566        C567   1.399       .  A
C566        C571   1.407       .  A
C567        C568   1.387       .  A
C567        H582   1.086       .  S
C568        C569   1.411       .  A
C568        C572   1.445       .  S
C569        C570   1.404       .  A
C570        C571   1.398       .  A
C570        H583   1.085       .  S
C571        C573   1.443       .  S
C572        N576   1.157       .  T
C573        N577   1.157       .  T
C574        N579   1.157       .  T
C575        N578   1.155       .  T
C584        C585   1.403       .  A
C584        C589   1.393       .  A
C584        C598   1.446       .  S
C585        C590   1.475       .  S
C585        C586   1.402       .  A
C586        C587   1.403       .  A
C586        H605   1.085       .  S
C587        C588   1.417       .  A
C587        C599   1.443       .  S
C588        C589   1.408       .  A
C589        H604   1.077       .  S
C590        C591   1.395       .  A
C590        C595   1.406       .  A
C591        C592   1.393       .  A
C591        H606   1.086       .  S
C592        C593   1.420       .  A
C592        C596   1.443       .  S
C593        C594   1.410       .  A
C594        C595   1.401       .  A
C594        H607   1.084       .  S
C595        C597   1.443       .  S
C596        N600   1.157       .  T
C597        N601   1.157       .  T
C598        N603   1.157       .  T
C599        N602   1.157       .  T
C608        C609   1.404       .  A
C608        C613   1.395       .  A
C608        C622   1.446       .  S
C609        C614   1.467       .  S
C609        C610   1.397       .  A
C610        C611   1.397       .  A
C610        H629   1.085       .  S
C611        C612   1.418       .  A
C611        C623   1.444       .  S
C612        C613   1.409       .  A
C613        H628   1.084       .  S
C614        C615   1.402       .  A
C614        C619   1.404       .  A
C615        C616   1.396       .  A
C615        H630   1.085       .  S
C616        C617   1.407       .  A
C616        C620   1.443       .  S
C617        C618   1.400       .  A
C618        C619   1.393       .  A
C618        H631   1.077       .  S
C619        C621   1.444       .  S
C620        N624   1.157       .  T
C621        N625   1.157       .  T
C622        N627   1.157       .  T
C623        N626   1.157       .  T
C632        C633   1.412       .  A
C632        C637   1.395       .  A
C632        C646   1.445       .  S
C633        C638   1.488       .  S
C633        C634   1.405       .  A
C634        C635   1.405       .  A
C634        H653   1.084       .  S
C635        C636   1.414       .  A
C635        C647   1.444       .  S
C636        C637   1.404       .  A
C637        H652   1.085       .  S
C638        C639   1.401       .  A
C638        C643   1.411       .  A
C639        C640   1.399       .  A
C639        H654   1.085       .  S
C640        C641   1.409       .  A
C640        C644   1.435       .  S
C641        C642   1.404       .  A
C642        C643   1.402       .  A
C642        H655   1.080       .  S
C643        C645   1.443       .  S
C644        N648   1.155       .  T
C645        N649   1.157       .  T
C646        N651   1.157       .  T
C647        N650   1.157       .  T
C656        C657   1.407       .  A
C656        C661   1.390       .  A
C656        C670   1.443       .  S
C657        C662   1.465       .  S
C657        C658   1.397       .  A
C658        C659   1.389       .  A
C658        H677   1.086       .  S
C659        C660   1.414       .  A
C659        C671   1.435       .  S
C660        C661   1.406       .  A
C661        H676   1.081       .  S
C662        C663   1.399       .  A
C662        C667   1.408       .  A
C663        C664   1.381       .  A
C663        H678   1.086       .  S
C664        C665   1.413       .  A
C664        C668   1.448       .  S
C665        C666   1.401       .  A
C666        C667   1.396       .  A
C666        H679   1.085       .  S
C667        C669   1.442       .  S
C668        N672   1.158       .  T
C669        N673   1.157       .  T
C670        N675   1.157       .  T
C671        N674   1.156       .  T
C680        C681   1.413       .  A
C680        C685   1.395       .  A
C680        C694   1.445       .  S
C681        C686   1.480       .  S
C681        C682   1.402       .  A
C682        C683   1.397       .  A
C682        H701   1.085       .  S
C683        C684   1.413       .  A
C683        C695   1.445       .  S
C684        C685   1.401       .  A
C685        H700   1.085       .  S
C686        C687   1.400       .  A
C686        C691   1.408       .  A
C687        C688   1.394       .  A
C687        H702   1.086       .  S
C688        C689   1.411       .  A
C688        C692   1.438       .  S
C689        C690   1.410       .  A
C690        C691   1.399       .  A
C690        H703   1.084       .  S
C691        C693   1.443       .  S
C692        N696   1.156       .  T
C693        N697   1.157       .  T
C694        N699   1.157       .  T
C695        N698   1.157       .  T
O704        C712   1.260       .  A
O704       Co724   1.997       .  S
O705        C713   1.275       .  A
O705       Co725   2.002       .  S
O706        C714   1.253       .  A
O706       Co726   1.944       .  S
O707        C715   1.266       .  A
O707       Co727   1.875       .  S
O708        C714   1.269       .  A
O708       Co725   2.011       .  S
O709        C715   1.297       .  A
O709       Co724   2.119       .  S
O710        C713   1.267       .  A
O711        C712   1.256       .  A
C712       C1387   1.471       .  S
C713       C1315   1.476       .  S
C714       C1368   1.461       .  S
C715       C1339   1.477       .  S
O716        C729   1.265       .  A
O716       Co724   1.873       .  S
O717        C730   1.258       .  A
O717       Co725   1.945       .  S
O718        C731   1.276       .  A
O719        C732   1.261       .  A
O720        C732   1.254       .  A
O720       Co725   1.963       .  S
O721        C731   1.269       .  A
O721       Co724   1.953       .  S
O722        C729   1.296       .  A
O722       Co727   2.110       .  S
O723        C730   1.279       .  A
O723       Co726   2.055       .  S
Co724       O728   1.971       .  S
Co727       O728   1.973       .  S
C729       C1296   1.479       .  S
C730       C1219   1.475       .  S
C731       C1248   1.465       .  S
C732       C1272   1.460       .  S
O733        C741   1.257       .  A
O733       Co753   1.973   1_565  S
O734        C742   1.263       .  A
O734       Co754   1.900       .  S
O735        C743   1.286       .  A
O736        C744   1.276       .  A
O736       Co756   2.042       .  S
O737        C743   1.269       .  A
O737       Co754   1.958   1_565  S
O738        C744   1.258       .  A
O738       Co753   1.967       .  S
O739        C742   1.297       .  A
O740        C741   1.272       .  A
O740       Co755   2.042       .  S
C741       C1123   1.493       .  S
C742       C1027   1.500       .  S
C743       C1147   1.490       .  S
C744       C1051   1.492       .  S
O745        C758   1.273       .  A
O745       Co753   2.016       .  S
O746        C759   1.259       .  A
O746       Co754   2.013   1_565  S
O747        C760   1.262       .  A
O747       Co755   1.956       .  S
O748        C761   1.276       .  A
O749        C761   1.297       .  A
O749       Co754   2.107       .  S
O750        C760   1.280       .  A
O750       Co753   2.052   1_565  S
O751        C758   1.269       .  A
O751       Co756   1.983       .  S
O752        C759   1.251       .  A
Co753       O757   2.031       .  S
Co755       O757   2.035   1_565  S
Co756       O757   2.029       .  S
C758       C1075   1.499       .  S
C759       C1171   1.472       .  S
C760       C1195   1.506       .  S
C761       C1104   1.507       .  S
O762        C770   1.302       .  A
O762       Co782   2.114       .  S
O763        C771   1.275       .  A
O764        C772   1.264       .  A
O764       Co784   1.979       .  S
O765        C773   1.247       .  A
O765       Co785   1.958   1_655  S
O766        C772   1.280       .  A
O766       Co783   2.054       .  S
O767        C773   1.265       .  A
O768        C771   1.252       .  A
O768       Co785   1.941       .  S
O769        C770   1.264       .  A
O769       Co784   1.899   1_655  S
C770       C1008   1.501       .  S
C771        C859   1.492       .  S
C772        C840   1.497       .  S
C773        C984   1.504       .  S
O774        C787   1.269       .  A
O775        C788   1.253       .  A
O775       Co783   1.970       .  S
O776        C789   1.292       .  A
O776       Co784   2.085   1_655  S
O777        C790   1.274       .  A
O777       Co785   2.039       .  S
O778        C790   1.257       .  A
O779        C789   1.268       .  A
O779       Co782   1.905       .  S
O780        C787   1.281       .  A
O780       Co785   2.046   1_655  S
O781        C788   1.264       .  A
O781       Co784   2.027       .  S
Co782       O786   2.047   1_655  S
Co783       O786   2.057       .  S
Co784       O786   2.028       .  S
C787        C960   1.516       .  S
C788        C907   1.498       .  S
C789        C931   1.485       .  S
C790        C888   1.495       .  S
C791        H792   1.105       .  S
C791        C797   1.543       .  S
C791        C796   1.551       .  S
C791        C795   1.541       .  S
C793        H794   1.110       .  S
C793        C799   1.552       .  S
C793        C798   1.535       .  S
C793        C800   1.544       .  S
C795        C798   1.382       .  D
C795       C1363   1.489       .  S
C796        C799   1.388       .  D
C796       C1099   1.509       .  S
C797        C800   1.376       .  D
C797        C883   1.514       .  S
C798       C1392   1.494       .  S
C799       C1080   1.514       .  S
C800        C912   1.503       .  S
C801        H802   1.103       .  S
C801        C807   1.538       .  S
C801        C806   1.547       .  S
C801        C805   1.542       .  S
C803        H804   1.111       .  S
C803        C809   1.558       .  S
C803        C808   1.525       .  S
C803        C810   1.552       .  S
C805        C808   1.369       .  D
C805       C1344   1.486       .  S
C806        C809   1.392       .  D
C806       C1056   1.527       .  S
C807        C810   1.380       .  D
C807        C936   1.486       .  S
C808       C1320   1.472       .  S
C809       C1032   1.511       .  S
C810        C955   1.522       .  S
C811        H812   1.107       .  S
C811        C817   1.544       .  S
C811        C816   1.545       .  S
C811        C815   1.548       .  S
C813        H814   1.110       .  S
C813        C819   1.541       .  S
C813        C818   1.540       .  S
C813        C820   1.545       .  S
C815        C818   1.384       .  D
C815       C1243   1.483       .  S
C816        C819   1.377       .  D
C816       C1200   1.521       .  S
C817        C820   1.381       .  D
C817        C835   1.507       .  S
C818       C1224   1.505       .  S
C819       C1176   1.495       .  S
C820        C864   1.500       .  S
C821        H822   1.108       .  S
C821        C827   1.542       .  S
C821        C826   1.540       .  S
C821        C825   1.538       .  S
C823        H824   1.108       .  S
C823        C829   1.552       .  S
C823        C828   1.548       .  S
C823        C830   1.547       .  S
C825        C828   1.388       .  D
C825       C1267   1.496       .  S
C826        C829   1.377       .  D
C826       C1152   1.497       .  S
C827        C830   1.379       .  D
C827        C979   1.504       .  S
C828       C1291   1.496       .  S
C829       C1128   1.512       .  S
C830       C1003   1.517       .  S
C831        C832   1.418       .  A
C831        C836   1.406       .  A
C831        C845   1.445       .  S
C832        C837   1.513       .  S
C832        C833   1.410       .  A
C833        C834   1.412       .  A
C833        H852   1.084       .  S
C834        C835   1.412       .  A
C834        C846   1.442       .  S
C835        C836   1.407       .  A
C836        H851   1.081       .  S
C837        C838   1.404       .  A
C837        C842   1.420       .  A
C838        C839   1.403       .  A
C838        H853   1.085       .  S
C839        C840   1.415       .  A
C839        C843   1.439       .  S
C840        C841   1.405       .  A
C841        C842   1.414       .  A
C841        H854   1.084       .  S
C842        C844   1.442       .  S
C843        N847   1.156       .  T
C844        N848   1.157       .  T
C845        N850   1.157       .  T
C846        N849   1.157       .  T
C855        C856   1.412       .  A
C855        C860   1.397       .  A
C855        C869   1.445       .  S
C856        C861   1.504       .  S
C856        C857   1.415       .  A
C857        C858   1.410       .  A
C857        H876   1.084       .  S
C858        C859   1.409       .  A
C858        C870   1.443       .  S
C859        C860   1.409       .  A
C860        H875   1.084       .  S
C861        C862   1.416       .  A
C861        C866   1.410       .  A
C862        C863   1.412       .  A
C862        H877   1.083       .  S
C863        C864   1.406       .  A
C863        C867   1.442       .  S
C864        C865   1.401       .  A
C865        C866   1.395       .  A
C865        H878   1.059       .  S
C866        C868   1.446       .  S
C867        N871   1.157       .  T
C868        N872   1.157       .  T
C869        N874   1.157       .  T
C870        N873   1.157       .  T
C879        C880   1.410       .  A
C879        C884   1.408       .  A
C879        C893   1.441       .  S
C880        C885   1.495       .  S
C880        C881   1.397       .  A
C881        C882   1.401       .  A
C881        H900   1.086       .  S
C882        C883   1.422       .  A
C882        C894   1.439       .  S
C883        C884   1.411       .  A
C884        H899   1.084       .  S
C885        C886   1.401       .  A
C885        C890   1.414       .  A
C886        C887   1.406       .  A
C886        H901   1.085       .  S
C887        C888   1.420       .  A
C887        C891   1.445       .  S
C888        C889   1.405       .  A
C889        C890   1.407       .  A
C889        H902   1.084       .  S
C890        C892   1.444       .  S
C891        N895   1.157       .  T
C892        N896   1.157       .  T
C893        N898   1.157       .  T
C894        N897   1.157       .  T
C903        C904   1.410       .  A
C903        C908   1.401       .  A
C903        C917   1.444       .  S
C904        C909   1.497       .  S
C904        C905   1.408       .  A
C905        C906   1.412       .  A
C905        H924   1.084       .  S
C906        C907   1.416       .  A
C906        C918   1.442       .  S
C907        C908   1.408       .  A
C908        H923   1.085       .  S
C909        C910   1.401       .  A
C909        C914   1.414       .  A
C910        C911   1.404       .  A
C910        H925   1.085       .  S
C911        C912   1.420       .  A
C911        C915   1.442       .  S
C912        C913   1.404       .  A
C913        C914   1.408       .  A
C913        H926   1.084       .  S
C914        C916   1.443       .  S
C915        N919   1.157       .  T
C916        N920   1.157       .  T
C917        N922   1.157       .  T
C918        N921   1.157       .  T
C927        C928   1.409       .  A
C927        C932   1.399       .  A
C927        C941   1.444       .  S
C928        C933   1.477       .  S
C928        C929   1.396       .  A
C929        C930   1.399       .  A
C929        H948   1.085       .  S
C930        C931   1.418       .  A
C930        C942   1.441       .  S
C931        C932   1.406       .  A
C932        H947   1.084       .  S
C933        C934   1.400       .  A
C933        C938   1.408       .  A
C934        C935   1.400       .  A
C934        H949   1.085       .  S
C935        C936   1.413       .  A
C935        C939   1.445       .  S
C936        C937   1.403       .  A
C937        C938   1.399       .  A
C937        H950   1.083       .  S
C938        C940   1.445       .  S
C939        N943   1.157       .  T
C940        N944   1.157       .  T
C941        N946   1.157       .  T
C942        N945   1.156   1_655  T
C951        C952   1.414       .  A
C951        C956   1.406       .  A
C951        C965   1.444       .  S
C952        C957   1.512       .  S
C952        C953   1.409       .  A
C953        C954   1.415       .  A
C953        H972   1.084       .  S
C954        C955   1.419       .  A
C954        C966   1.442       .  S
C955        C956   1.410       .  A
C956        H971   1.081       .  S
C957        C958   1.404       .  A
C957        C962   1.414       .  A
C958        C959   1.409       .  A
C958        H973   1.085       .  S
C959        C960   1.423       .  A
C959        C963   1.440       .  S
C960        C961   1.412       .  A
C961        C962   1.412       .  A
C961        H974   1.084       .  S
C962        C964   1.442       .  S
C963        N967   1.156   1_556  T
C964        N968   1.157       .  T
C965        N970   1.157       .  T
C966        N969   1.157       .  T
C975        C976   1.415       .  A
C975        C980   1.408       .  A
C975        C989   1.443       .  S
C976        C981   1.504       .  S
C976        C977   1.408       .  A
C977        C978   1.405       .  A
C977        H996   1.085       .  S
C978        C979   1.411       .  A
C978        C990   1.441       .  S
C979        C980   1.410       .  A
C980        H995   1.084       .  S
C981        C982   1.399       .  A
C981        C986   1.418       .  A
C982        C983   1.400       .  A
C982        H997   1.085       .  S
C983        C984   1.425       .  A
C983        C987   1.445       .  S
C984        C985   1.408       .  A
C985        C986   1.412       .  A
C985        H998   1.084       .  S
C986        C988   1.443       .  S
C987        N991   1.157       .  T
C988        N992   1.157       .  T
C989        N994   1.157       .  T
C990        N993   1.156       .  T
C999       C1000   1.411       .  A
C999       C1004   1.411       .  A
C999       C1013   1.442       .  S
C1000      C1005   1.497       .  S
C1000      C1001   1.396       .  A
C1001      C1002   1.400       .  A
C1001      H1020   1.086       .  S
C1002      C1003   1.424       .  A
C1002      C1014   1.438       .  S
C1003      C1004   1.413       .  A
C1004      H1019   1.084       .  S
C1005      C1006   1.401       .  A
C1005      C1010   1.413       .  A
C1006      C1007   1.405       .  A
C1006      H1021   1.085       .  S
C1007      C1008   1.424       .  A
C1007      C1011   1.444       .  S
C1008      C1009   1.407       .  A
C1009      C1010   1.406       .  A
C1009      H1022   1.084       .  S
C1010      C1012   1.443       .  S
C1011      N1015   1.157       .  T
C1012      N1016   1.157       .  T
C1013      N1018   1.157       .  T
C1014      N1017   1.156       .  T
C1023      C1024   1.408       .  A
C1023      C1028   1.404       .  A
C1023      C1037   1.444       .  S
C1024      C1029   1.492       .  S
C1024      C1025   1.404       .  A
C1025      C1026   1.408       .  A
C1025      H1044   1.085       .  S
C1026      C1027   1.419       .  A
C1026      C1038   1.444       .  S
C1027      C1028   1.411       .  A
C1028      H1043   1.084       .  S
C1029      C1030   1.397       .  A
C1029      C1034   1.409       .  A
C1030      C1031   1.403       .  A
C1030      H1045   1.085       .  S
C1031      C1032   1.426       .  A
C1031      C1035   1.441       .  S
C1032      C1033   1.409       .  A
C1033      C1034   1.408       .  A
C1033      H1046   1.085       .  S
C1034      C1036   1.443       .  S
C1035      N1039   1.157       .  T
C1036      N1040   1.157       .  T
C1037      N1042   1.157       .  T
C1038      N1041   1.157       .  T
C1047      C1048   1.409       .  A
C1047      C1052   1.404       .  A
C1047      C1061   1.444       .  S
C1048      C1053   1.499       .  S
C1048      C1049   1.409       .  A
C1049      C1050   1.410       .  A
C1049      H1068   1.085       .  S
C1050      C1051   1.413       .  A
C1050      C1062   1.444       .  S
C1051      C1052   1.409       .  A
C1052      H1067   1.085       .  S
C1053      C1054   1.394       .  A
C1053      C1058   1.413       .  A
C1054      C1055   1.402       .  A
C1054      H1069   1.086       .  S
C1055      C1056   1.431       .  A
C1055      C1059   1.437       .  S
C1056      C1057   1.413       .  A
C1057      C1058   1.410       .  A
C1057      H1070   1.083       .  S
C1058      C1060   1.443       .  S
C1059      N1063   1.156       .  T
C1060      N1064   1.157       .  T
C1061      N1066   1.157       .  T
C1062      N1065   1.157       .  T
C1071      C1072   1.409       .  A
C1071      C1076   1.403       .  A
C1071      C1085   1.443       .  S
C1072      C1077   1.489       .  S
C1072      C1073   1.400       .  A
C1073      C1074   1.404       .  A
C1073      H1092   1.085       .  S
C1074      C1075   1.423       .  A
C1074      C1086   1.444       .  S
C1075      C1076   1.409       .  A
C1076      H1091   1.084       .  S
C1077      C1078   1.405       .  A
C1077      C1082   1.405       .  A
C1078      C1079   1.411       .  A
C1078      H1093   1.084       .  S
C1079      C1080   1.418       .  A
C1079      C1083   1.442       .  S
C1080      C1081   1.410       .  A
C1081      C1082   1.396       .  A
C1081      H1094   1.076       .  S
C1082      C1084   1.446       .  S
C1083      N1087   1.157       .  T
C1084      N1088   1.157       .  T
C1085      N1090   1.157       .  T
C1086      N1089   1.157       .  T
C1095      C1096   1.415       .  A
C1095      C1100   1.406       .  A
C1095      C1109   1.443       .  S
C1096      C1101   1.507       .  S
C1096      C1097   1.409       .  A
C1097      C1098   1.413       .  A
C1097      H1116   1.084       .  S
C1098      C1099   1.413       .  A
C1098      C1110   1.443       .  S
C1099      C1100   1.409       .  A
C1100      H1115   1.084       .  S
C1101      C1102   1.407       .  A
C1101      C1106   1.412       .  A
C1102      C1103   1.411       .  A
C1102      H1117   1.084       .  S
C1103      C1104   1.417       .  A
C1103      C1107   1.443       .  S
C1104      C1105   1.412       .  A
C1105      C1106   1.410       .  A
C1105      H1118   1.084       .  S
C1106      C1108   1.444       .  S
C1107      N1111   1.157       .  T
C1108      N1112   1.157       .  T
C1109      N1114   1.157       .  T
C1110      N1113   1.157       .  T
C1119      C1120   1.422       .  A
C1119      C1124   1.410       .  A
C1119      C1133   1.443       .  S
C1120      C1125   1.521       .  S
C1120      C1121   1.412       .  A
C1121      C1122   1.407       .  A
C1121      H1140   1.082       .  S
C1122      C1123   1.410       .  A
C1122      C1134   1.441       .  S
C1123      C1124   1.403       .  A
C1124      H1139   1.085       .  S
C1125      C1126   1.417       .  A
C1125      C1130   1.419       .  A
C1126      C1127   1.414       .  A
C1126      H1141   1.083       .  S
C1127      C1128   1.407       .  A
C1127      C1131   1.442       .  S
C1128      C1129   1.404       .  A
C1129      C1130   1.402       .  A
C1129      H1142   1.079       .  S
C1130      C1132   1.445       .  S
C1131      N1135   1.157       .  T
C1132      N1136   1.158       .  T
C1133      N1138   1.157       .  T
C1134      N1137   1.156       .  T
C1143      C1144   1.408       .  A
C1143      C1148   1.400       .  A
C1143      C1157   1.445       .  S
C1144      C1149   1.493       .  S
C1144      C1145   1.408       .  A
C1145      C1146   1.406       .  A
C1145      H1164   1.085       .  S
C1146      C1147   1.413       .  A
C1146      C1158   1.444       .  S
C1147      C1148   1.410       .  A
C1148      H1163   1.085       .  S
C1149      C1150   1.411       .  A
C1149      C1154   1.407       .  A
C1150      C1151   1.410       .  A
C1150      H1165   1.084       .  S
C1151      C1152   1.408       .  A
C1151      C1155   1.441       .  S
C1152      C1153   1.401       .  A
C1153      C1154   1.393       .  A
C1153      H1166   1.070       .  S
C1154      C1156   1.445       .  S
C1155      N1159   1.157       .  T
C1156      N1160   1.157       .  T
C1157      N1162   1.157       .  T
C1158      N1161   1.157       .  T
C1167      C1168   1.412       .  A
C1167      C1172   1.402       .  A
C1167      C1181   1.443       .  S
C1168      C1173   1.489       .  S
C1168      C1169   1.406       .  A
C1169      C1170   1.401       .  A
C1169      H1188   1.085       .  S
C1170      C1171   1.409       .  A
C1170      C1182   1.445       .  S
C1171      C1172   1.403       .  A
C1172      H1187   1.085       .  S
C1173      C1174   1.400       .  A
C1173      C1178   1.414       .  A
C1174      C1175   1.397       .  A
C1174      H1189   1.085       .  S
C1175      C1176   1.419       .  A
C1175      C1179   1.442       .  S
C1176      C1177   1.403       .  A
C1177      C1178   1.404       .  A
C1177      H1190   1.085       .  S
C1178      C1180   1.443       .  S
C1179      N1183   1.157       .  T
C1180      N1184   1.157       .  T
C1181      N1186   1.157       .  T
C1182      N1185   1.157       .  T
C1191      C1192   1.409       .  A
C1191      C1196   1.399       .  A
C1191      C1205   1.445       .  S
C1192      C1197   1.500       .  S
C1192      C1193   1.409       .  A
C1193      C1194   1.414       .  A
C1193      H1212   1.084       .  S
C1194      C1195   1.418       .  A
C1194      C1206   1.442       .  S
C1195      C1196   1.412       .  A
C1196      H1211   1.084       .  S
C1197      C1198   1.400       .  A
C1197      C1202   1.409       .  A
C1198      C1199   1.400       .  A
C1198      H1213   1.086       .  S
C1199      C1200   1.422       .  A
C1199      C1203   1.439       .  S
C1200      C1201   1.416       .  A
C1201      C1202   1.411       .  A
C1201      H1214   1.084       .  S
C1202      C1204   1.442       .  S
C1203      N1207   1.157       .  T
C1204      N1208   1.157       .  T
C1205      N1210   1.157       .  T
C1206      N1209   1.157       .  T
C1215      C1216   1.414       .  A
C1215      C1220   1.404       .  A
C1215      C1229   1.443       .  S
C1216      C1221   1.486       .  S
C1216      C1217   1.398       .  A
C1217      C1218   1.399       .  A
C1217      H1236   1.085       .  S
C1218      C1219   1.417       .  A
C1218      C1230   1.444       .  S
C1219      C1220   1.401       .  A
C1220      H1235   1.085       .  S
C1221      C1222   1.397       .  A
C1221      C1226   1.409       .  A
C1222      C1223   1.397       .  A
C1222      H1237   1.086       .  S
C1223      C1224   1.417       .  A
C1223      C1227   1.440       .  S
C1224      C1225   1.413       .  A
C1225      C1226   1.405       .  A
C1225      H1238   1.083       .  S
C1226      C1228   1.443       .  S
C1227      N1231   1.156       .  T
C1228      N1232   1.157       .  T
C1229      N1234   1.157       .  T
C1230      N1233   1.157       .  T
C1239      C1240   1.398       .  A
C1239      C1244   1.391       .  A
C1239      C1253   1.445       .  S
C1240      C1245   1.462       .  S
C1240      C1241   1.400       .  A
C1241      C1242   1.391       .  A
C1241      H1260   1.086       .  S
C1242      C1243   1.412       .  A
C1242      C1254   1.442       .  S
C1243      C1244   1.411       .  A
C1244      H1259   1.076       .  S
C1245      C1246   1.400       .  A
C1245      C1250   1.405       .  A
C1246      C1247   1.391       .  A
C1246      H1261   1.085       .  S
C1247      C1248   1.412       .  A
C1247      C1251   1.445       .  S
C1248      C1249   1.405       .  A
C1249      C1250   1.391       .  A
C1249      H1262   1.085       .  S
C1250      C1252   1.445       .  S
C1251      N1255   1.157       .  T
C1252      N1256   1.157       .  T
C1253      N1258   1.157       .  T
C1254      N1257   1.157       .  T
C1263      C1264   1.403       .  A
C1263      C1268   1.397       .  A
C1263      C1277   1.443       .  S
C1264      C1269   1.466       .  S
C1264      C1265   1.391       .  A
C1265      C1266   1.387       .  A
C1265      H1284   1.087       .  S
C1266      C1267   1.419       .  A
C1266      C1278   1.436       .  S
C1267      C1268   1.412       .  A
C1268      H1283   1.082       .  S
C1269      C1270   1.399       .  A
C1269      C1274   1.407       .  A
C1270      C1271   1.387       .  A
C1270      H1285   1.086       .  S
C1271      C1272   1.411       .  A
C1271      C1275   1.446       .  S
C1272      C1273   1.404       .  A
C1273      C1274   1.398       .  A
C1273      H1286   1.085       .  S
C1274      C1276   1.444       .  S
C1275      N1279   1.157       .  T
C1276      N1280   1.157       .  T
C1277      N1282   1.157       .  T
C1278      N1281   1.155       .  T
C1287      C1288   1.402       .  A
C1287      C1292   1.385       .  A
C1287      C1301   1.447       .  S
C1288      C1293   1.472       .  S
C1288      C1289   1.404       .  A
C1289      C1290   1.403       .  A
C1289      H1308   1.085       .  S
C1290      C1291   1.416       .  A
C1290      C1302   1.443       .  S
C1291      C1292   1.406       .  A
C1292      H1307   1.076       .  S
C1293      C1294   1.398       .  A
C1293      C1298   1.404       .  A
C1294      C1295   1.391       .  A
C1294      H1309   1.086       .  S
C1295      C1296   1.417       .  A
C1295      C1299   1.442       .  S
C1296      C1297   1.410       .  A
C1297      C1298   1.397       .  A
C1297      H1310   1.084       .  S
C1298      C1300   1.443       .  S
C1299      N1303   1.156       .  T
C1300      N1304   1.157       .  T
C1301      N1306   1.157       .  T
C1302      N1305   1.157       .  T
C1311      C1312   1.404       .  A
C1311      C1316   1.390       .  A
C1311      C1325   1.446       .  S
C1312      C1317   1.465       .  S
C1312      C1313   1.399       .  A
C1313      C1314   1.397       .  A
C1313      H1332   1.085       .  S
C1314      C1315   1.415       .  A
C1314      C1326   1.443       .  S
C1315      C1316   1.408       .  A
C1316      H1331   1.085       .  S
C1317      C1318   1.402       .  A
C1317      C1322   1.403       .  A
C1318      C1319   1.393       .  A
C1318      H1333   1.085       .  S
C1319      C1320   1.407       .  A
C1319      C1323   1.443       .  S
C1320      C1321   1.402       .  A
C1321      C1322   1.392       .  A
C1321      H1334   1.078       .  S
C1322      C1324   1.444       .  S
C1323      N1327   1.157       .  T
C1324      N1328   1.157       .  T
C1325      N1330   1.157       .  T
C1326      N1329   1.157   1_556  T
C1335      C1336   1.415       .  A
C1335      C1340   1.393       .  A
C1335      C1349   1.445       .  S
C1336      C1341   1.486       .  S
C1336      C1337   1.404       .  A
C1337      C1338   1.401       .  A
C1337      H1356   1.084       .  S
C1338      C1339   1.415       .  A
C1338      C1350   1.444       .  S
C1339      C1340   1.402       .  A
C1340      H1355   1.085       .  S
C1341      C1342   1.400       .  A
C1341      C1346   1.413       .  A
C1342      C1343   1.394       .  A
C1342      H1357   1.085       .  S
C1343      C1344   1.408       .  A
C1343      C1347   1.434       .  S
C1344      C1345   1.403       .  A
C1345      C1346   1.400       .  A
C1345      H1358   1.080       .  S
C1346      C1348   1.443       .  S
C1347      N1351   1.154       .  T
C1348      N1352   1.157       .  T
C1349      N1354   1.157       .  T
C1350      N1353   1.157       .  T
C1359      C1360   1.409       .  A
C1359      C1364   1.394       .  A
C1359      C1373   1.444       .  S
C1360      C1365   1.469       .  S
C1360      C1361   1.396       .  A
C1361      C1362   1.387       .  A
C1361      H1380   1.086       .  S
C1362      C1363   1.413       .  A
C1362      C1374   1.435       .  S
C1363      C1364   1.408       .  A
C1364      H1379   1.083       .  S
C1365      C1366   1.401       .  A
C1365      C1370   1.407       .  A
C1366      C1367   1.384       .  A
C1366      H1381   1.086       .  S
C1367      C1368   1.414       .  A
C1367      C1371   1.448       .  S
C1368      C1369   1.404       .  A
C1369      C1370   1.395       .  A
C1369      H1382   1.084       .  S
C1370      C1372   1.443       .  S
C1371      N1375   1.158       .  T
C1372      N1376   1.157       .  T
C1373      N1378   1.157       .  T
C1374      N1377   1.156       .  T
C1383      C1384   1.412       .  A
C1383      C1388   1.396       .  A
C1383      C1397   1.445       .  S
C1384      C1389   1.478       .  S
C1384      C1385   1.401       .  A
C1385      C1386   1.396       .  A
C1385      H1404   1.085       .  S
C1386      C1387   1.413       .  A
C1386      C1398   1.445       .  S
C1387      C1388   1.402       .  A
C1388      H1403   1.085       .  S
C1389      C1390   1.401       .  A
C1389      C1394   1.407       .  A
C1390      C1391   1.395       .  A
C1390      H1405   1.085       .  S
C1391      C1392   1.411       .  A
C1391      C1395   1.438       .  S
C1392      C1393   1.409       .  A
C1393      C1394   1.397       .  A
C1393      H1406   1.084       .  S
C1394      C1396   1.443       .  S
C1395      N1399   1.156       .  T
C1396      N1400   1.157       .  T
C1397      N1402   1.157       .  T
C1398      N1401   1.157       .  T
