geometry optimzed in LAMMPS
_audit_creation_date              2020-12-01 
_audit_creation_method            'lammps2cif' 
_symmetry_space_group_name_H-M    'P1' 
_symmetry_Int_Tables_number       1 
_symmetry_cell_setting            triclinic 
loop_ 
_symmetry_equiv_pos_as_xyz 
  x,y,z 
_cell_length_a                    24.46145003 
_cell_length_b                    24.857824258955567 
_cell_length_c                    30.61117472189253 
_cell_angle_alpha                 93.08236762818704 
_cell_angle_beta                  90.30390697918118 
_cell_angle_gamma                 89.36120755918296 
loop_ 
_atom_site_label 
_atom_site_type_symbol 
_atom_site_fract_x 
_atom_site_fract_y 
_atom_site_fract_z 
_atom_site_charge 
C1          C  0.28588486  0.99211558  0.04436930     0.86400
C2          C  0.24871468  0.04210429  0.04194055    -0.53900
C3          C  0.21479995  0.04241425  0.50598273     0.09300
C4          C  0.22154396  0.99096280  0.47552822     0.20200
C5          C  0.24736167  0.94358191  0.04025825    -0.54600
C6          C  0.21294973  0.94340522  0.50497839     0.09400
C7          C  0.31617141  0.98851970  0.00037295    -0.54100
C8          C  0.28292088  0.98852126  0.46464985     0.10000
H9          H  0.25072994  0.07512363  0.06653444     0.14500
H10         H  0.19455428  0.98844149  0.44640785     0.00200
H11         H  0.24750520  0.91150614  0.06295592     0.14800
H12         H  0.36011528  0.98507369  0.49661764     0.14600
O13         O  0.55466001  0.94871844  0.21316975    -0.71900
O14         O  0.44448595  0.94992088  0.30037177    -0.72100
O15         O  0.44514663  0.95105535  0.21255754    -0.72000
O16         O  0.55507304  0.94740864  0.30103806    -0.72000
O17         O  0.55348453  0.03464561  0.30725003    -0.71900
O18         O  0.44918559  0.03850191  0.21516342    -0.72000
O19         O  0.44346962  0.03717509  0.30291901    -0.71900
O20         O  0.55793914  0.03597859  0.22004929    -0.72100
V21         V  0.49984368  0.95088726  0.25700084     1.35200
V22         V  0.50089573  0.03484473  0.26141734     1.35200
C23         C  0.57491413  0.99233508  0.20163178     0.77300
C24         C  0.42442743  0.99390741  0.31615067     0.77400
C25         C  0.43005775  0.99540923  0.19782157     0.77300
C26         C  0.57354041  0.99058798  0.31905504     0.77200
C27         C  0.71725748  0.99876572  0.04904316     0.86400
C28         C  0.75920074  0.95259837  0.04703253    -0.53900
C29         C  0.79116539  0.95017051  0.51068763     0.09300
C30         C  0.77790226  0.99394057  0.47853710     0.20200
C31         C  0.75160917  0.04967303  0.04293403    -0.54600
C32         C  0.78441357  0.04698593  0.50663418     0.09400
C33         C  0.68464304  0.99243930  0.00632412    -0.54100
C34         C  0.71584416  0.98944128  0.46956273     0.10000
H35         H  0.76421565  0.92480242  0.07301193     0.14500
H36         H  0.80368777  0.99028513  0.44886976     0.00200
H37         H  0.75118996  0.08520905  0.06478138     0.14800
H38         H  0.64025783  0.99138332  0.50513901     0.14600
C39         C  0.99665527  0.28261470  0.44822563     0.86400
C40         C  0.04721326  0.24506402  0.44846407    -0.53900
C41         C  0.05057910  0.21315166  0.98367584     0.09300
C42         C  0.00194837  0.22168451  0.01528741     0.20200
C43         C  0.94721040  0.24545815  0.45267962    -0.54600
C44         C  0.95023937  0.21207758  0.98687037     0.09400
C45         C  0.99787337  0.31389797  0.49290144    -0.54100
C46         C  0.00125359  0.28253783  0.02775723     0.10000
H47         H  0.07796174  0.24460090  0.42301036     0.14500
H48         H  0.00460993  0.19585087  0.04323498     0.00200
H49         H  0.91160537  0.24669001  0.43154515     0.14800
H50         H  0.99430535  0.35738957  0.99742841     0.14600
O51         O  0.94115466  0.55065255  0.28681534    -0.71900
O52         O  0.94881957  0.43844204  0.19800473    -0.72100
O53         O  0.94474231  0.44249948  0.28594770    -0.72000
O54         O  0.94596377  0.54674989  0.19867372    -0.72000
O55         O  0.03461167  0.54597427  0.20085235    -0.71900
O56         O  0.03322778  0.44765381  0.29077595    -0.72000
O57         O  0.03729383  0.43827277  0.20278086    -0.71900
O58         O  0.02972747  0.55489871  0.28832286    -0.72100
V59         V  0.94680340  0.49465654  0.24237967     1.35200
V60         V  0.03194670  0.49656632  0.24553922     1.35200
C61         C  0.98403991  0.57154660  0.30311528     0.77300
C62         C  0.99426679  0.41888504  0.18527854     0.77400
C63         C  0.98904474  0.42856148  0.30393402     0.77300
C64         C  0.99090177  0.56411929  0.18491395     0.77200
C65         C  0.00280044  0.70949864  0.04036409     0.86400
C66         C  0.05524966  0.74256772  0.03433097    -0.53900
C67         C  0.05408941  0.77337923  0.49856866     0.09300
C68         C  0.00091335  0.76814520  0.47160828     0.20200
C69         C  0.95689240  0.75204663  0.04072477    -0.54600
C70         C  0.95564183  0.78258113  0.50499384     0.09400
C71         C  0.99665633  0.67704407  0.49673778    -0.54100
C72         C  0.99499002  0.70720819  0.46085208     0.10000
H73         H  0.08938145  0.74500387  0.05686906     0.14500
H74         H  0.99983554  0.79313714  0.44260495     0.00200
H75         H  0.92835066  0.75833020  0.06764534     0.14800
H76         H  0.99362958  0.63339701  0.49440312     0.14600
C77         C  0.98122860  0.61252174  0.34007683    -0.00300
C78         C  0.02273901  0.65109457  0.34520428    -0.12100
C79         C  0.02576813  0.68562932  0.38293401     0.02000
C80         C  0.98721409  0.68118311  0.41655919    -0.00400
C81         C  0.94397894  0.64490878  0.41028973    -0.12100
C82         C  0.94055041  0.61079380  0.37260403     0.01800
H83         H  0.05390325  0.65311396  0.32028961     0.14800
H84         H  0.91407141  0.64149872  0.43602657     0.17000
C85         C  0.89747515  0.57143410  0.37020318     0.36500
C86         C  0.07083307  0.72249585  0.38754741     0.36400
N87         N  0.86306168  0.53980224  0.36842220    -0.43900
N88         N  0.10697468  0.75209449  0.39094129    -0.43900
C89         C  0.99299591  0.60400597  0.15051273    -0.00300
C90         C  0.94994067  0.60684614  0.12034136    -0.12100
C91         C  0.95230575  0.64112494  0.08550545     0.02000
C92         C  0.99901281  0.67365317  0.07970668    -0.00400
C93         C  0.04103880  0.67198955  0.11130239    -0.12100
C94         C  0.03823412  0.63821755  0.14635278     0.01800
H95         H  0.91463349  0.58132216  0.12339962     0.14800
H96         H  0.07652839  0.69701213  0.10975475     0.14800
C97         C  0.08181940  0.64114978  0.17843854     0.36500
C98         C  0.90607454  0.64144681  0.05589228     0.36400
N99         N  0.11658727  0.64376877  0.20423098    -0.43900
N100        N  0.86912669  0.64176207  0.03212658    -0.43900
C101        C  0.99527048  0.31904791  0.40889904    -0.00300
C102        C  0.01999499  0.37020998  0.41314700    -0.12100
C103        C  0.01681143  0.40655763  0.37990233     0.02000
C104        C  0.99003165  0.39192252  0.34031964    -0.00400
C105        C  0.96836280  0.34016858  0.33430833    -0.12100
C106        C  0.97241429  0.30315281  0.36735927     0.01800
H107        H  0.04271572  0.38231294  0.44239153     0.14800
H108        H  0.95026631  0.32786615  0.30296079     0.14800
C109        C  0.95600616  0.24855000  0.35613284     0.36500
C110        C  0.04027773  0.45937414  0.38767066     0.36400
N111        N  0.94282109  0.20487491  0.34667451    -0.43900
N112        N  0.05882940  0.50174222  0.39391088    -0.43900
C113        C  0.00300932  0.30773661  0.07257395    -0.00300
C114        C  0.95465696  0.31208832  0.09678041    -0.12100
C115        C  0.95152517  0.34544676  0.13512059     0.02000
C116        C  0.99733200  0.37641825  0.14918571    -0.00400
C117        C  0.04647170  0.36983865  0.12578031    -0.12100
C118        C  0.04942315  0.33635930  0.08761655     0.01800
H119        H  0.91839134  0.29153779  0.08448435     0.14800
H120        H  0.08207000  0.39299627  0.13597254     0.14800
C121        C  0.09978119  0.33394762  0.06312780     0.36500
C122        C  0.90054393  0.34741080  0.15875829     0.36400
N123        N  0.14004185  0.33189424  0.04340222    -0.43900
N124        N  0.85963848  0.34864592  0.17763659    -0.43900
C125        C  0.83796731  0.91202191  0.50609684    -0.00300
C126        C  0.84110996  0.87586502  0.46938680    -0.12100
C127        C  0.88067334  0.83442078  0.46729140     0.02000
C128        C  0.91765113  0.82914152  0.50238264    -0.00400
C129        C  0.91653773  0.86746763  0.03768870    -0.12100
C130        C  0.87745346  0.90882783  0.03971535     0.01800
H131        H  0.81111475  0.87849261  0.44334382     0.14800
H132        H  0.94585099  0.86446394  0.06420292     0.14800
C133        C  0.87869742  0.94751604  0.07668157     0.36500
C134        C  0.88024263  0.79604908  0.43023354     0.36400
N135        N  0.87952322  0.97853048  0.10625728    -0.43900
N136        N  0.87965298  0.76544568  0.40039032    -0.43900
C137        C  0.82743426  0.08829695  0.50015155    -0.00300
C138        C  0.85412054  0.11112527  0.03740477    -0.12100
C139        C  0.89334377  0.15134051  0.03457657     0.02000
C140        C  0.90849961  0.16915853  0.99317084    -0.00400
C141        C  0.88322933  0.14468594  0.45575213    -0.12100
C142        C  0.84296788  0.10534071  0.45877265     0.01800
H143        H  0.84441058  0.09738350  0.06944827     0.14800
H144        H  0.89510443  0.15601721  0.42350067     0.14800
C145        C  0.81821453  0.08466361  0.41853627     0.36500
C146        C  0.91542069  0.17330873  0.07541873     0.36400
N147        N  0.79982410  0.06863512  0.38550885    -0.43900
N148        N  0.93268627  0.18904627  0.10893136    -0.43900
C149        C  0.68945825  0.98681732  0.42592450    -0.00300
C150        C  0.67942288  0.03500241  0.40557216    -0.12100
C151        C  0.64471997  0.03661689  0.36910139     0.02000
C152        C  0.61676443  0.98955579  0.35367355    -0.00400
C153        C  0.62926986  0.94066663  0.37294805    -0.12100
C154        C  0.66546567  0.93902073  0.40860449     0.01800
H155        H  0.69716155  0.07200655  0.41927859     0.14800
H156        H  0.60953635  0.90383564  0.36109123     0.14800
C157        C  0.67641560  0.88816841  0.42776332     0.36500
C158        C  0.63911141  0.08721204  0.34835928     0.36400
N159        N  0.68564235  0.84740295  0.44297316    -0.43900
N160        N  0.63519973  0.12773569  0.33161598    -0.43900
C161        C  0.61512495  0.99267824  0.16572474    -0.00300
C162        C  0.61409756  0.95092823  0.13316358    -0.12100
C163        C  0.64685039  0.95235311  0.09595727     0.02000
C164        C  0.68156961  0.99687924  0.09007934    -0.00400
C165        C  0.68430186  0.03728651  0.12422537    -0.12100
C166        C  0.65183036  0.03541496  0.16160145     0.01800
H167        H  0.58649612  0.91749929  0.13618541     0.14800
H168        H  0.71228638  0.07020462  0.12321126     0.14800
C169        C  0.65868540  0.07705147  0.19593662     0.36500
C170        C  0.64378004  0.90701968  0.06448707     0.36400
N171        N  0.66448084  0.11024267  0.22350231    -0.43900
N172        N  0.64118759  0.87047968  0.03953058    -0.43900
C173        C  0.09581146  0.81522783  0.49211042    -0.00300
C174        C  0.07830632  0.86889359  0.48959234    -0.12100
C175        C  0.11583260  0.91119036  0.49179547     0.02000
C176        C  0.17225593  0.89997430  0.49635201    -0.00400
C177        C  0.18993108  0.84597271  0.99625565    -0.12100
C178        C  0.15238471  0.80372762  0.99373119     0.01800
H179        H  0.03488834  0.87813061  0.48856567     0.14800
H180        H  0.23322363  0.83682834  0.99904115     0.14800
C181        C  0.17279554  0.74893998  0.99251783     0.36500
C182        C  0.09451388  0.96557654  0.49305054     0.36400
N183        N  0.18907217  0.70499243  0.99120694    -0.43900
N184        N  0.07609620  0.00869536  0.49416997    -0.43900
C185        C  0.17498369  0.08798739  0.49874585    -0.00300
C186        C  0.15301908  0.11688316  0.03551183    -0.12100
C187        C  0.11560393  0.15944056  0.03148958     0.02000
C188        C  0.09557702  0.17230580  0.98975963    -0.00400
C189        C  0.11806487  0.14419183  0.45285638    -0.12100
C190        C  0.15810868  0.10365718  0.45680205     0.01800
H191        H  0.16481821  0.10631464  0.06812484     0.14800
H192        H  0.10412562  0.15356475  0.42044560     0.14800
C193        C  0.18187487  0.08096044  0.41683462     0.36500
C194        C  0.10122493  0.19022658  0.07115936     0.36400
N195        N  0.20009983  0.06341654  0.38421473    -0.43900
N196        N  0.09046601  0.21399652  0.10357388    -0.43900
C197        C  0.38065081  0.99435887  0.34994212    -0.00300
C198        C  0.35872321  0.94494204  0.36157033    -0.12100
C199        C  0.32237070  0.94251159  0.39665056     0.02000
C200        C  0.30698990  0.99004475  0.42063294    -0.00400
C201        C  0.32595702  0.03961015  0.40767872    -0.12100
C202        C  0.36205487  0.04239698  0.37257073     0.01800
H203        H  0.37151947  0.90771348  0.34433703     0.14800
H204        H  0.31470245  0.07616520  0.42665501     0.14800
C205        C  0.38096506  0.09507739  0.36237119     0.36500
C206        C  0.30386786  0.89057862  0.40904401     0.36400
N207        N  0.39590285  0.13744900  0.35439852    -0.43900
N208        N  0.28916273  0.84881290  0.41877557    -0.43900
C209        C  0.32255951  0.99462507  0.08557360    -0.00300
C210        C  0.37718957  0.01209623  0.08298510    -0.12100
C211        C  0.41228693  0.01283666  0.11920902     0.02000
C212        C  0.39320779  0.99680822  0.15969035    -0.00400
C213        C  0.33832722  0.98279392  0.16372928    -0.12100
C214        C  0.30258509  0.98332562  0.12768350     0.01800
H215        H  0.39309506  0.02676650  0.05307439     0.14800
H216        H  0.32308509  0.97250229  0.19540504     0.14800
C217        C  0.24549254  0.97367010  0.13559312     0.36500
C218        C  0.46815695  0.02945024  0.11368799     0.36400
N219        N  0.19978870  0.96586571  0.14217188    -0.43900
N220        N  0.51276704  0.04286670  0.10884642    -0.43900
C221        C  0.28588729  0.99211284  0.54436353     0.86400
C222        C  0.24871368  0.04210021  0.54194165    -0.53900
C223        C  0.21479909  0.04241271  0.00598240     0.09300
C224        C  0.22154142  0.99095516  0.97553436     0.20200
C225        C  0.24736729  0.94357753  0.54024545    -0.54600
C226        C  0.21294456  0.94340502  0.00499084     0.09400
C227        C  0.31617386  0.98852925  0.50036685    -0.54100
C228        C  0.28291836  0.98850584  0.96465593     0.10000
H229        H  0.25072611  0.07511546  0.56653941     0.14500
H230        H  0.19455179  0.98842655  0.94641440     0.00200
H231        H  0.24751142  0.91149850  0.56294030     0.14800
H232        H  0.36011295  0.98505881  0.99662512     0.14600
O233        O  0.55465849  0.94870249  0.71317104    -0.71900
O234        O  0.44448388  0.94989100  0.80037130    -0.72100
O235        O  0.44514461  0.95103079  0.71255668    -0.72000
O236        O  0.55507110  0.94738802  0.80103830    -0.72000
O237        O  0.55347731  0.03462485  0.80725143    -0.71900
O238        O  0.44917344  0.03847798  0.71516837    -0.72000
O239        O  0.44346201  0.03714515  0.80292428    -0.71900
O240        O  0.55792817  0.03596311  0.72005149    -0.72100
V241        V  0.49984137  0.95086456  0.75700097     1.35200
V242        V  0.50088620  0.03482216  0.76142069     1.35200
C243        C  0.57490888  0.99232137  0.70163451     0.77300
C244        C  0.42442246  0.99387481  0.81615307     0.77400
C245        C  0.43005074  0.99538472  0.69782333     0.77300
C246        C  0.57353719  0.99056824  0.81905480     0.77200
C247        C  0.71725698  0.99876788  0.54905043     0.86400
C248        C  0.75920039  0.95260068  0.54703539    -0.53900
C249        C  0.79116832  0.95016492  0.01068606     0.09300
C250        C  0.77790721  0.99393189  0.97853225     0.20200
C251        C  0.75160854  0.04967599  0.54294329    -0.54600
C252        C  0.78441666  0.04697932  0.00662667     0.09400
C253        C  0.68463991  0.99244578  0.50633226    -0.54100
C254        C  0.71584959  0.98943139  0.96955579     0.10000
H255        H  0.76421818  0.92480284  0.57301342     0.14500
H256        H  0.80369466  0.99027503  0.94886572     0.00200
H257        H  0.75119043  0.08520978  0.56479358     0.14800
H258        H  0.64026074  0.99137696  0.00512925     0.14600
C259        C  0.99665331  0.28260949  0.94821999     0.86400
C260        C  0.04721179  0.24505992  0.94846061    -0.53900
C261        C  0.05058075  0.21315303  0.48367792     0.09300
C262        C  0.00194963  0.22168419  0.51528943     0.20200
C263        C  0.94720900  0.24545281  0.95267596    -0.54600
C264        C  0.95023986  0.21208100  0.48687289     0.09400
C265        C  0.99787027  0.31389640  0.99289411    -0.54100
C266        C  0.00125662  0.28253625  0.52776238     0.10000
H267        H  0.07796009  0.24459359  0.92300637     0.14500
H268        H  0.00460893  0.19584802  0.54323527     0.00200
H269        H  0.91160207  0.24668422  0.93154380     0.14800
H270        H  0.99430577  0.35739053  0.49743984     0.14600
O271        O  0.94114968  0.55065271  0.78681479    -0.71900
O272        O  0.94881765  0.43844334  0.69800481    -0.72100
O273        O  0.94474380  0.44249972  0.78594757    -0.72000
O274        O  0.94595620  0.54675180  0.69867421    -0.72000
O275        O  0.03460424  0.54597666  0.70084892    -0.71900
O276        O  0.03322859  0.44766164  0.79077637    -0.72000
O277        O  0.03729176  0.43827512  0.70278156    -0.71900
O278        O  0.02972222  0.55490594  0.78831851    -0.72100
V279        V  0.94680008  0.49465736  0.74237956     1.35200
V280        V  0.03194325  0.49657115  0.74553750     1.35200
C281        C  0.98403421  0.57155099  0.80311190     0.77300
C282        C  0.99426504  0.41888594  0.68527975     0.77400
C283        C  0.98904734  0.42856572  0.80393456     0.77300
C284        C  0.99089306  0.56412277  0.68491350     0.77200
C285        C  0.00279416  0.70950827  0.54036860     0.86400
C286        C  0.05524516  0.74257510  0.53433500    -0.53900
C287        C  0.05409125  0.77337477  0.99856664     0.09300
C288        C  0.00091447  0.76814173  0.97160736     0.20200
C289        C  0.95688799  0.75205780  0.54072599    -0.54600
C290        C  0.95564358  0.78257290  0.00499429     0.09400
C291        C  0.99666191  0.67703783  0.99673181    -0.54100
C292        C  0.99499256  0.70720558  0.96084808     0.10000
H293        H  0.08937594  0.74501159  0.55687395     0.14500
H294        H  0.99983478  0.79313640  0.94260581     0.00200
H295        H  0.92834580  0.75834509  0.56764597     0.14800
H296        H  0.99363585  0.63339090  0.99439480     0.14600
C297        C  0.98122163  0.61252717  0.84007181    -0.00300
C298        C  0.02272787  0.65110475  0.84519549    -0.12100
C299        C  0.02575885  0.68563834  0.88292558     0.02000
C300        C  0.98721132  0.68118532  0.91655453    -0.00400
C301        C  0.94397776  0.64490886  0.91028746    -0.12100
C302        C  0.94054728  0.61079517  0.87260155     0.01800
H303        H  0.05388798  0.65312807  0.82027789     0.14800
H304        H  0.91407407  0.64149532  0.93602660     0.17000
C305        C  0.89747508  0.57143205  0.87020341     0.36500
C306        C  0.07081915  0.72251092  0.88753506     0.36400
N307        N  0.86306405  0.53979766  0.86842466    -0.43900
N308        N  0.10695645  0.75211494  0.89092563    -0.43900
C309        C  0.99298532  0.60401373  0.65051550    -0.00300
C310        C  0.94992960  0.60685674  0.62034494    -0.12100
C311        C  0.95229506  0.64113807  0.58551065     0.02000
C312        C  0.99900307  0.67366541  0.57971262    -0.00400
C313        C  0.04102765  0.67200164  0.61130937    -0.12100
C314        C  0.03822253  0.63822732  0.64635824     0.01800
H315        H  0.91462255  0.58133273  0.62340209     0.14800
H316        H  0.07651668  0.69702540  0.60976324     0.14800
C317        C  0.08180645  0.64115866  0.67844517     0.36500
C318        C  0.90606374  0.64146250  0.55589780     0.36400
N319        N  0.11657311  0.64377664  0.70423871    -0.43900
N320        N  0.86911581  0.64177980  0.53213224    -0.43900
C321        C  0.99527112  0.31904197  0.90889307    -0.00300
C322        C  0.02001927  0.37019280  0.91313715    -0.12100
C323        C  0.01683894  0.40654419  0.87989483     0.02000
C324        C  0.99003732  0.39192349  0.84031840    -0.00400
C325        C  0.96834561  0.34017877  0.83431020    -0.12100
C326        C  0.97239517  0.30315858  0.86735781     0.01800
H327        H  0.04275230  0.38228398  0.94237842     0.14800
H328        H  0.95023339  0.32788576  0.80296658     0.14800
C329        C  0.95596971  0.24856164  0.85612932     0.36500
C330        C  0.04032953  0.45935042  0.88766036     0.36400
N331        N  0.94277103  0.20489123  0.84666867    -0.43900
N332        N  0.05890076  0.50171024  0.89389824    -0.43900
C333        C  0.00301042  0.30773128  0.57257995    -0.00300
C334        C  0.95465410  0.31209201  0.59678044    -0.12100
C335        C  0.95152071  0.34545192  0.63511938     0.02000
C336        C  0.99733052  0.37641645  0.64918913    -0.00400
C337        C  0.04647413  0.36982689  0.62579022    -0.12100
C338        C  0.04942703  0.33634563  0.58762767     0.01800
H339        H  0.91838674  0.29154736  0.58448016     0.14800
H340        H  0.08207503  0.39297848  0.63598631     0.14800
C341        C  0.09978964  0.33392396  0.56314497     0.36500
C342        C  0.90053432  0.34742551  0.65875009     0.36400
N343        N  0.14005420  0.33186239  0.54342461    -0.43900
N344        N  0.85962449  0.34866799  0.67762238    -0.43900
C345        C  0.83796865  0.91201395  0.00609820    -0.00300
C346        C  0.84111647  0.87586181  0.96938543    -0.12100
C347        C  0.88067868  0.83441656  0.96729062     0.02000
C348        C  0.91765050  0.82913165  0.00238517    -0.00400
C349        C  0.91654374  0.86748263  0.53768277    -0.12100
C350        C  0.87745839  0.90884204  0.53970984     0.01800
H351        H  0.81112633  0.87849404  0.94333934     0.14800
H352        H  0.94586113  0.86448279  0.56419441     0.14800
C353        C  0.87870652  0.94753534  0.57667258     0.36500
C354        C  0.88025249  0.79605007  0.93022922     0.36400
N355        N  0.87953534  0.97855412  0.60624527    -0.43900
N356        N  0.87966576  0.76545118  0.90038292    -0.43900
C357        C  0.82743855  0.08828884  0.00014517    -0.00300
C358        C  0.85411677  0.11113454  0.53741050    -0.12100
C359        C  0.89334135  0.15134840  0.53458102     0.02000
C360        C  0.90849756  0.16916463  0.49317466    -0.00400
C361        C  0.88323291  0.14467962  0.95574745    -0.12100
C362        C  0.84297191  0.10533382  0.95876688     0.01800
H363        H  0.84440727  0.09739392  0.56945439     0.14800
H364        H  0.89510797  0.15601181  0.92349632     0.14800
C365        C  0.81821668  0.08465876  0.91853056     0.36500
C366        C  0.91542013  0.17331656  0.57542269     0.36400
N367        N  0.79982355  0.06863229  0.88550356    -0.43900
N368        N  0.93268766  0.18905401  0.60893460    -0.43900
C369        C  0.68946593  0.98680511  0.92591688    -0.00300
C370        C  0.67942267  0.03499023  0.90556685    -0.12100
C371        C  0.64471607  0.03660259  0.86909831     0.02000
C372        C  0.61676527  0.98953868  0.85367022    -0.00400
C373        C  0.62928038  0.94064943  0.87294116    -0.12100
C374        C  0.66547966  0.93900599  0.90859556     0.01800
H375        H  0.69715724  0.07199592  0.91927395     0.14800
H376        H  0.60955117  0.90381616  0.86108352     0.14800
C377        C  0.67643848  0.88815402  0.92775215     0.36500
C378        C  0.63909773  0.08719922  0.84835970     0.36400
N379        N  0.68567232  0.84738919  0.94296073    -0.43900
N380        N  0.63517799  0.12772427  0.83161944    -0.43900
C381        C  0.61512241  0.99266829  0.66572978    -0.00300
C382        C  0.61409772  0.95092047  0.63316696    -0.12100
C383        C  0.64685188  0.95234897  0.59596191     0.02000
C384        C  0.68157038  0.99687660  0.59008697    -0.00400
C385        C  0.68430111  0.03728096  0.62423535    -0.12100
C386        C  0.65182804  0.03540568  0.66161043     0.01800
H387        H  0.58649650  0.91749078  0.63618613     0.14800
H388        H  0.71228561  0.07020024  0.62322323     0.14800
C389        C  0.65868154  0.07703795  0.69594913     0.36500
C390        C  0.64378243  0.90701786  0.56448957     0.36400
N391        N  0.66447561  0.11022530  0.72351808    -0.43900
N392        N  0.64118981  0.87047897  0.53953204    -0.43900
C393        C  0.09581107  0.81522559  0.99211121    -0.00300
C394        C  0.07830373  0.86889166  0.98960099    -0.12100
C395        C  0.11582870  0.91118926  0.99180983     0.02000
C396        C  0.17225210  0.89997368  0.99636532    -0.00400
C397        C  0.18993283  0.84597283  0.49624893    -0.12100
C398        C  0.15238487  0.80372871  0.49373207     0.01800
H399        H  0.03488580  0.87812747  0.98857588     0.14800
H400        H  0.23322508  0.83682754  0.49903437     0.14800
C401        C  0.17279427  0.74894096  0.49252922     0.36500
C402        C  0.09450879  0.96557525  0.99307154     0.36400
N403        N  0.18907009  0.70499321  0.49122730    -0.43900
N404        N  0.07609036  0.00869385  0.99419642    -0.43900
C405        C  0.17497953  0.08798364  0.99874372    -0.00300
C406        C  0.15301307  0.11687628  0.53551454    -0.12100
C407        C  0.11559877  0.15943442  0.53149312     0.02000
C408        C  0.09558114  0.17230910  0.48976223    -0.00400
C409        C  0.11804751  0.14417670  0.95285437    -0.12100
C410        C  0.15808977  0.10364053  0.95679955     0.01800
H411        H  0.16480476  0.10629901  0.56812724     0.14800
H412        H  0.10409788  0.15354142  0.92044420     0.14800
C413        C  0.18183530  0.08092652  0.91683002     0.36500
C414        C  0.10121252  0.19021149  0.57116535     0.36400
N415        N  0.20004178  0.06336771  0.88420802    -0.43900
N416        N  0.09044761  0.21397389  0.60358206    -0.43900
C417        C  0.38064635  0.99431961  0.84994506    -0.00300
C418        C  0.35877237  0.94489480  0.86160935    -0.12100
C419        C  0.32242317  0.94246532  0.89669143     0.02000
C420        C  0.30698704  0.99000751  0.92063759    -0.00400
C421        C  0.32590154  0.03957630  0.90764819    -0.12100
C422        C  0.36199856  0.04236155  0.87253914     0.01800
H423        H  0.37161000  0.90766143  0.84440463     0.14800
H424        H  0.31460757  0.07613892  0.92659824     0.14800
C425        C  0.38085012  0.09504865  0.86230046     0.36500
C426        C  0.30398092  0.89052771  0.90912434     0.36400
N427        N  0.39574098  0.13742575  0.85429686    -0.43900
N428        N  0.28932607  0.84875761  0.91888726    -0.43900
C429        C  0.32256039  0.99461425  0.58556926    -0.00300
C430        C  0.37719431  0.01207495  0.58298358    -0.12100
C431        C  0.41228905  0.01280781  0.61920890     0.02000
C432        C  0.39320381  0.99678413  0.65968975    -0.00400
C433        C  0.33832044  0.98277787  0.66372577    -0.12100
C434        C  0.30258150  0.98331409  0.62767777     0.01800
H435        H  0.39310562  0.02674393  0.55307496     0.14800
H436        H  0.32307405  0.97248800  0.69540060     0.14800
C437        C  0.24548783  0.97365849  0.63558301     0.36500
C438        C  0.46816292  0.02940987  0.61368940     0.36400
N439        N  0.19978340  0.96585269  0.64215795    -0.43900
N440        N  0.51277602  0.04281695  0.60884789    -0.43900
loop_ 
_geom_bond_atom_site_label_1 
_geom_bond_atom_site_label_2 
_geom_bond_distance 
_geom_bond_site_symmetry_2 
_ccdc_geom_bond_type 
C1            C2   1.536   1_565  S
C1            C7   1.538       .  S
C1            C5   1.539       .  S
C1          C209   1.543       .  S
C2            H9   1.085       .  S
C2          C223   1.375       .  D
C3            C4   1.549   1_545  S
C3          C222   1.375       .  D
C3          C185   1.510       .  S
C4            C8   1.539       .  S
C4            C6   1.542       .  S
C4           H10   1.106       .  S
C5           H11   1.085       .  S
C5          C226   1.365       .  D
C6          C225   1.365       .  D
C6          C176   1.489       .  S
C7          H232   1.084   1_554  S
C7          C228   1.359   1_554  D
C8          C227   1.359       .  D
C8          C200   1.476       .  S
H12         C227   1.084       .  S
O13          V21   1.900       .  S
O13          C23   1.265       .  A
O14          V21   1.903       .  S
O14          C24   1.266       .  A
O15          V21   1.903       .  S
O15          C25   1.264       .  A
O16          V21   1.908       .  S
O16          C26   1.267       .  A
O17          V22   1.899       .  S
O17          C26   1.265   1_545  A
O18          V22   1.899       .  S
O18          C25   1.263   1_545  A
O19          V22   1.897       .  S
O19          C24   1.264   1_545  A
O20          V22   1.891       .  S
O20          C23   1.262   1_545  A
V21          V22   2.085   1_565  T
C23         C161   1.479       .  S
C24         C197   1.492       .  S
C25         C212   1.473       .  S
C26         C152   1.494       .  S
C27          C28   1.530       .  S
C27          C33   1.530       .  S
C27          C31   1.547   1_565  S
C27         C164   1.537       .  S
C28          H35   1.087       .  S
C28         C249   1.362       .  D
C29          C30   1.537       .  S
C29         C248   1.362       .  D
C29         C125   1.481       .  S
C30          C34   1.545       .  S
C30          C32   1.544   1_565  S
C30          H36   1.108       .  S
C31          H37   1.079       .  S
C31         C252   1.373       .  D
C32         C251   1.373       .  D
C32         C137   1.500       .  S
C33         H258   1.087       .  S
C33         C254   1.362   1_554  D
C34         C253   1.362       .  D
C34         C149   1.479       .  S
H38         C253   1.087       .  S
C39          C40   1.541   1_655  S
C39          C45   1.537       .  S
C39          C43   1.541       .  S
C39         C101   1.545       .  S
C40          H47   1.085       .  S
C40         C261   1.374       .  D
C41          C42   1.543   1_556  S
C41         C260   1.374       .  D
C41         C188   1.507       .  S
C42          C46   1.540       .  S
C42          C44   1.545   1_454  S
C42          H48   1.098       .  S
C43          H49   1.083       .  S
C43         C264   1.371       .  D
C44         C263   1.371       .  D
C44         C140   1.505       .  S
C45         H270   1.085       .  S
C45         C266   1.357   1_655  D
C46         C265   1.357   1_454  D
C46         C113   1.478       .  S
H50         C265   1.085       .  S
O51          V59   1.898       .  S
O51          C61   1.264       .  A
O52          V59   1.896       .  S
O52          C62   1.263       .  A
O53          V59   1.911       .  S
O53          C63   1.266       .  A
O54          V59   1.911       .  S
O54          C64   1.268       .  A
O55          V60   1.889       .  S
O55          C64   1.262   1_455  A
O56          V60   1.891       .  S
O56          C63   1.262   1_455  A
O57          V60   1.904       .  S
O57          C62   1.267   1_455  A
O58          V60   1.901       .  S
O58          C61   1.265   1_455  A
V59          V60   2.085   1_655  T
C61          C77   1.482       .  S
C62         C116   1.488       .  S
C63         C104   1.476       .  S
C64          C89   1.486       .  S
C65          C66   1.549       .  S
C65          C69   1.534   1_455  S
C65         C291   1.530   1_454  S
C65          C92   1.540   1_455  S
C66          H73   1.080       .  S
C66         C287   1.369   1_554  D
C67          C68   1.540       .  S
C67         C286   1.369       .  D
C67         C173   1.487       .  S
C68          C72   1.541   1_455  S
C68          C70   1.537   1_455  S
C68          H74   1.111   1_455  S
C69          H75   1.087       .  S
C69         C290   1.364       .  D
C70         C289   1.364       .  D
C70         C128   1.481       .  S
C71         C285   1.530   1_655  S
C71          H76   1.087       .  S
C71          C72   1.363       .  D
C72          C80   1.483       .  S
C77          C78   1.407   1_655  A
C77          C82   1.414       .  A
C78          C79   1.404       .  A
C78          H83   1.085       .  S
C79          C80   1.409   1_455  A
C79          C86   1.443       .  S
C80          C81   1.403       .  A
C81          C82   1.397       .  A
C81          H84   1.085       .  S
C82          C85   1.445       .  S
C85          N87   1.157       .  T
C86          N88   1.157       .  T
C89          C90   1.401       .  A
C89          C94   1.414   1_655  A
C90          C91   1.402       .  A
C90          H95   1.085       .  S
C91          C92   1.424       .  A
C91          C98   1.446       .  S
C92          C93   1.410   1_655  A
C93          C94   1.400       .  A
C93          H96   1.076       .  S
C94          C97   1.446       .  S
C97          N99   1.157       .  T
C98         N100   1.157       .  T
C101        C102   1.414   1_655  A
C101        C106   1.424       .  A
C102        C103   1.398       .  A
C102        H107   1.082       .  S
C103        C104   1.407   1_455  A
C103        C110   1.446       .  S
C104        C105   1.399       .  A
C105        C106   1.406       .  A
C105        H108   1.085       .  S
C106        C109   1.443       .  S
C109        N111   1.157       .  T
C110        N112   1.157       .  T
C113        C114   1.399   1_455  A
C113        C118   1.409       .  A
C114        C115   1.402       .  A
C114        H119   1.084       .  S
C115        C116   1.418       .  A
C115        C122   1.444       .  S
C116        C117   1.406   1_655  A
C117        C118   1.399       .  A
C117        H120   1.084       .  S
C118        C121   1.444       .  S
C121        N123   1.157       .  T
C122        N124   1.157       .  T
C125        C126   1.403       .  A
C125        C350   1.412       .  A
C126        C127   1.405       .  A
C126        H131   1.085       .  S
C127        C128   1.411       .  A
C127        C134   1.442       .  S
C128        C349   1.402       .  A
C129        C130   1.395       .  A
C129        C348   1.402       .  A
C129        H132   1.085       .  S
C130        C345   1.412       .  A
C130        C133   1.446       .  S
C133        N135   1.157       .  T
C134        N136   1.157       .  T
C137        C142   1.412       .  A
C137        C358   1.407       .  A
C138        C139   1.400       .  A
C138        C357   1.407       .  A
C138        H143   1.084       .  S
C139        C140   1.417   1_554  A
C139        C146   1.442       .  S
C140        C361   1.411       .  A
C141        C142   1.403       .  A
C141        C360   1.411       .  A
C141        H144   1.083       .  S
C142        C145   1.442       .  S
C145        N147   1.157       .  T
C146        N148   1.157       .  T
C149        C150   1.398   1_565  A
C149        C154   1.408       .  A
C150        C151   1.401       .  A
C150        H155   1.084       .  S
C151        C152   1.419   1_545  A
C151        C158   1.444       .  S
C152        C153   1.409       .  A
C153        C154   1.404       .  A
C153        H156   1.084       .  S
C154        C157   1.444       .  S
C157        N159   1.157       .  T
C158        N160   1.157       .  T
C161        C162   1.400       .  A
C161        C166   1.410   1_565  A
C162        C163   1.398       .  A
C162        H167   1.085       .  S
C163        C164   1.422       .  A
C163        C170   1.445       .  S
C164        C165   1.412   1_565  A
C165        C166   1.399       .  A
C165        H168   1.075       .  S
C166        C169   1.445       .  S
C169        N171   1.157       .  T
C170        N172   1.157       .  T
C173        C174   1.402       .  A
C173        C398   1.411       .  A
C174        C175   1.402       .  A
C174        H179   1.085       .  S
C175        C176   1.413       .  A
C175        C182   1.442       .  S
C176        C397   1.406       .  A
C177        C178   1.402       .  A
C177        C396   1.406       .  A
C177        H180   1.085       .  S
C178        C393   1.411       .  A
C178        C181   1.444       .  S
C181        N183   1.157       .  T
C182        N184   1.157   1_565  T
C185        C190   1.420       .  A
C185        C406   1.408       .  A
C186        C187   1.401       .  A
C186        C405   1.408   1_554  A
C186        H191   1.083       .  S
C187        C188   1.417   1_554  A
C187        C194   1.443       .  S
C188        C409   1.407       .  A
C189        C190   1.407       .  A
C189        C408   1.407       .  A
C189        H192   1.084       .  S
C190        C193   1.442       .  S
C193        N195   1.157       .  T
C194        N196   1.157       .  T
C197        C198   1.410       .  A
C197        C202   1.419   1_565  A
C198        C199   1.402       .  A
C198        H203   1.084       .  S
C199        C200   1.406       .  A
C199        C206   1.443       .  S
C200        C201   1.399   1_565  A
C201        C202   1.400       .  A
C201        H204   1.085       .  S
C202        C205   1.444       .  S
C205        N207   1.157       .  T
C206        N208   1.157       .  T
C209        C210   1.414   1_565  A
C209        C214   1.424       .  A
C210        C211   1.398       .  A
C210        H215   1.080       .  S
C211        C212   1.406   1_545  A
C211        C218   1.445       .  S
C212        C213   1.398       .  A
C213        C214   1.405       .  A
C213        H216   1.085       .  S
C214        C217   1.444       .  S
C217        N219   1.157       .  T
C218        N220   1.157       .  T
C221        C222   1.536   1_565  S
C221        C227   1.538       .  S
C221        C225   1.539       .  S
C221        C429   1.543       .  S
C222        H229   1.085       .  S
C223        C224   1.549   1_544  S
C223        C405   1.510   1_554  S
C224        C228   1.539       .  S
C224        C226   1.542   1_556  S
C224        H230   1.106       .  S
C225        H231   1.085       .  S
C226        C396   1.489   1_554  S
C228        C420   1.476       .  S
O233        V241   1.900       .  S
O233        C243   1.265       .  A
O234        V241   1.903       .  S
O234        C244   1.266       .  A
O235        V241   1.903       .  S
O235        C245   1.264       .  A
O236        V241   1.908       .  S
O236        C246   1.267       .  A
O237        V242   1.899       .  S
O237        C246   1.265   1_545  A
O238        V242   1.899       .  S
O238        C245   1.263   1_545  A
O239        V242   1.897       .  S
O239        C244   1.264   1_545  A
O240        V242   1.891       .  S
O240        C243   1.262   1_545  A
V241        V242   2.085   1_565  T
C243        C381   1.479       .  S
C244        C417   1.492       .  S
C245        C432   1.473       .  S
C246        C372   1.494       .  S
C247        C248   1.530       .  S
C247        C253   1.530       .  S
C247        C251   1.547   1_565  S
C247        C384   1.537       .  S
C248        H255   1.087       .  S
C249        C250   1.537   1_554  S
C249        C345   1.481       .  S
C250        C254   1.545       .  S
C250        C252   1.544   1_566  S
C250        H256   1.108       .  S
C251        H257   1.079       .  S
C252        C357   1.500       .  S
C254        C369   1.479       .  S
C259        C260   1.541   1_655  S
C259        C265   1.537       .  S
C259        C263   1.541       .  S
C259        C321   1.545       .  S
C260        H267   1.085       .  S
C261        C262   1.543       .  S
C261        C408   1.507       .  S
C262        C266   1.540       .  S
C262        C264   1.545   1_455  S
C262        H268   1.098       .  S
C263        H269   1.083       .  S
C264        C360   1.505       .  S
C266        C333   1.478       .  S
O271        V279   1.898       .  S
O271        C281   1.264       .  A
O272        V279   1.896       .  S
O272        C282   1.263       .  A
O273        V279   1.911       .  S
O273        C283   1.266       .  A
O274        V279   1.911       .  S
O274        C284   1.268       .  A
O275        V280   1.889       .  S
O275        C284   1.262   1_455  A
O276        V280   1.891       .  S
O276        C283   1.262   1_455  A
O277        V280   1.904       .  S
O277        C282   1.267   1_455  A
O278        V280   1.901       .  S
O278        C281   1.265   1_455  A
V279        V280   2.085   1_655  T
C281        C297   1.482       .  S
C282        C336   1.488       .  S
C283        C324   1.476       .  S
C284        C309   1.486       .  S
C285        C286   1.549       .  S
C285        C289   1.534   1_455  S
C285        C312   1.540   1_455  S
C286        H293   1.080       .  S
C287        C288   1.540       .  S
C287        C393   1.487       .  S
C288        C292   1.541   1_455  S
C288        C290   1.537   1_456  S
C288        H294   1.111   1_455  S
C289        H295   1.087       .  S
C290        C348   1.481       .  S
C291        H296   1.087       .  S
C291        C292   1.363       .  D
C292        C300   1.483       .  S
C297        C298   1.407   1_655  A
C297        C302   1.414       .  A
C298        C299   1.404       .  A
C298        H303   1.085       .  S
C299        C300   1.409   1_455  A
C299        C306   1.443       .  S
C300        C301   1.403       .  A
C301        C302   1.397       .  A
C301        H304   1.085       .  S
C302        C305   1.445       .  S
C305        N307   1.157       .  T
C306        N308   1.157       .  T
C309        C310   1.401       .  A
C309        C314   1.414   1_655  A
C310        C311   1.402       .  A
C310        H315   1.085       .  S
C311        C312   1.424       .  A
C311        C318   1.446       .  S
C312        C313   1.410   1_655  A
C313        C314   1.400       .  A
C313        H316   1.076       .  S
C314        C317   1.446       .  S
C317        N319   1.157       .  T
C318        N320   1.157       .  T
C321        C322   1.414   1_655  A
C321        C326   1.424       .  A
C322        C323   1.398       .  A
C322        H327   1.082       .  S
C323        C324   1.407   1_455  A
C323        C330   1.446       .  S
C324        C325   1.399       .  A
C325        C326   1.406       .  A
C325        H328   1.085       .  S
C326        C329   1.443       .  S
C329        N331   1.157       .  T
C330        N332   1.157       .  T
C333        C334   1.399   1_455  A
C333        C338   1.409       .  A
C334        C335   1.402       .  A
C334        H339   1.084       .  S
C335        C336   1.418       .  A
C335        C342   1.444       .  S
C336        C337   1.406   1_655  A
C337        C338   1.399       .  A
C337        H340   1.084       .  S
C338        C341   1.444       .  S
C341        N343   1.157       .  T
C342        N344   1.157       .  T
C345        C346   1.403   1_554  A
C346        C347   1.405       .  A
C346        H351   1.085       .  S
C347        C348   1.411   1_556  A
C347        C354   1.442       .  S
C349        C350   1.395       .  A
C349        H352   1.085       .  S
C350        C353   1.446       .  S
C353        N355   1.157       .  T
C354        N356   1.157       .  T
C357        C362   1.412   1_554  A
C358        C359   1.400       .  A
C358        H363   1.084       .  S
C359        C360   1.417       .  A
C359        C366   1.442       .  S
C361        C362   1.403       .  A
C361        H364   1.083       .  S
C362        C365   1.442       .  S
C365        N367   1.157       .  T
C366        N368   1.157       .  T
C369        C370   1.398   1_565  A
C369        C374   1.408       .  A
C370        C371   1.401       .  A
C370        H375   1.084       .  S
C371        C372   1.419   1_545  A
C371        C378   1.444       .  S
C372        C373   1.409       .  A
C373        C374   1.404       .  A
C373        H376   1.084       .  S
C374        C377   1.444       .  S
C377        N379   1.157       .  T
C378        N380   1.157       .  T
C381        C382   1.400       .  A
C381        C386   1.410   1_565  A
C382        C383   1.398       .  A
C382        H387   1.085       .  S
C383        C384   1.422       .  A
C383        C390   1.445       .  S
C384        C385   1.412   1_565  A
C385        C386   1.399       .  A
C385        H388   1.075       .  S
C386        C389   1.445       .  S
C389        N391   1.157       .  T
C390        N392   1.157       .  T
C393        C394   1.402       .  A
C394        C395   1.402       .  A
C394        H399   1.085       .  S
C395        C396   1.413       .  A
C395        C402   1.442       .  S
C397        C398   1.402       .  A
C397        H400   1.085       .  S
C398        C401   1.444       .  S
C401        N403   1.157       .  T
C402        N404   1.157   1_565  T
C405        C410   1.420       .  A
C406        C407   1.401       .  A
C406        H411   1.083       .  S
C407        C408   1.417       .  A
C407        C414   1.443       .  S
C409        C410   1.407       .  A
C409        H412   1.084       .  S
C410        C413   1.442       .  S
C413        N415   1.157       .  T
C414        N416   1.157       .  T
C417        C418   1.410       .  A
C417        C422   1.419   1_565  A
C418        C419   1.402       .  A
C418        H423   1.084       .  S
C419        C420   1.406       .  A
C419        C426   1.443       .  S
C420        C421   1.399   1_565  A
C421        C422   1.400       .  A
C421        H424   1.085       .  S
C422        C425   1.444       .  S
C425        N427   1.157       .  T
C426        N428   1.157       .  T
C429        C430   1.414   1_565  A
C429        C434   1.424       .  A
C430        C431   1.398       .  A
C430        H435   1.080       .  S
C431        C432   1.406   1_545  A
C431        C438   1.445       .  S
C432        C433   1.398       .  A
C433        C434   1.405       .  A
C433        H436   1.085       .  S
C434        C437   1.444       .  S
C437        N439   1.157       .  T
C438        N440   1.157       .  T
