geometry optimzed in LAMMPS
_audit_creation_date              2020-11-30 
_audit_creation_method            'lammps2cif' 
_symmetry_space_group_name_H-M    'P1' 
_symmetry_Int_Tables_number       1 
_symmetry_cell_setting            triclinic 
loop_ 
_symmetry_equiv_pos_as_xyz 
  x,y,z 
_cell_length_a                    43.11077742 
_cell_length_b                    43.035743141874846 
_cell_length_c                    35.58950044209858 
_cell_angle_alpha                 90.23132413465768 
_cell_angle_beta                  91.41068920495412 
_cell_angle_gamma                 119.83895411376382 
loop_ 
_atom_site_label 
_atom_site_type_symbol 
_atom_site_fract_x 
_atom_site_fract_y 
_atom_site_fract_z 
_atom_site_charge 
C1          C  0.39768446  0.22072500  0.07049540     0.82000
N2          N  0.40385987  0.20924856  0.03732188    -0.76300
C3          C  0.41690357  0.18624377  0.03729684     0.84500
N4          N  0.42388787  0.17497896  0.07039078    -0.76200
C5          C  0.41781859  0.18654032  0.10346510     0.84600
N6          N  0.40471332  0.20936870  0.10345290    -0.77900
C7          C  0.24363752  0.80657212  0.35639152     0.82000
N8          N  0.22801080  0.78748132  0.32420999    -0.76300
C9          C  0.20378913  0.75199709  0.32569852     0.84500
N10         N  0.19532912  0.73559746  0.35942151    -0.76200
C11         C  0.21099897  0.75462823  0.39162856     0.84600
N12         N  0.23515016  0.79014133  0.39009859    -0.77900
C13         C  0.72473393  0.11719720  0.08979326     0.82000
N14         N  0.73641249  0.13413770  0.12372707    -0.76300
C15         C  0.76260500  0.16897339  0.12581146     0.84500
N16         N  0.77712282  0.18696498  0.09387673    -0.76200
C17         C  0.76556656  0.17015494  0.05982912     0.84600
N18         N  0.73923090  0.13523461  0.05777466    -0.77900
C19         C  0.56127082  0.69828644  0.32694828     0.82000
N20         N  0.55220722  0.70830630  0.35913118    -0.76300
C21         C  0.54263836  0.73387745  0.35857008     0.84500
N22         N  0.54215682  0.74954824  0.32570905    -0.76200
C23         C  0.55126556  0.73963518  0.29337665     0.84600
N24         N  0.56072913  0.71385254  0.29395228    -0.77900
C25         C  0.82430200  0.54100439  0.08577175     0.82000
N26         N  0.80906487  0.53937681  0.05134939    -0.76300
C27         C  0.77374636  0.52921359  0.04824195     0.84500
N28         N  0.75382899  0.52061102  0.07947783    -0.76200
C29         C  0.76910895  0.52219087  0.11373631     0.84600
N30         N  0.80428434  0.53240628  0.11682949    -0.77900
C31         C  0.14568025  0.38607680  0.37100032     0.82000
N32         N  0.16251376  0.39035802  0.33805423    -0.76300
C33         C  0.19720011  0.39830398  0.33828051     0.84500
N34         N  0.21497966  0.40192801  0.37146778    -0.76200
C35         C  0.19816762  0.39760399  0.40439274     0.84600
N36         N  0.16353130  0.38974912  0.40416142    -0.77900
O37         O  0.86980955  0.28957370  0.27183645    -0.79100
O38         O  0.93819627  0.40117126  0.40259959    -0.63800
O39         O  0.89220459  0.31341603  0.34684333    -1.10400
C40         C  0.78809641  0.32228887  0.36120228     1.07800
O41         O  0.89523732  0.38501255  0.44397505    -0.77000
O42         O  0.84099701  0.31653112  0.43620400    -0.64600
Ni43       Ni  0.91312565  0.30771676  0.30229380     1.34900
C44         C  0.83099028  0.28617741  0.42099840     0.86500
O45         O  0.96092407  0.35828076  0.37779846    -0.77500
O46         O  0.95856281  0.32460025  0.32812321    -0.87800
C47         C  0.92726681  0.40491634  0.43395532     0.86100
O48         O  0.92917346  0.35391625  0.28170784    -0.66000
O49         O  0.80316683  0.33922349  0.39174866    -0.85300
C50         C  0.93683111  0.38382868  0.29643095     0.86900
C51         C  0.97455710  0.34455249  0.35677103     1.08500
H52         H  0.87319343  0.37477470  0.35351559     0.40300
O53         O  0.87113781  0.35611016  0.37002337    -1.08000
O54         O  0.83055273  0.28105680  0.38562880    -0.64600
Ni55       Ni  0.84714567  0.31175725  0.34221094     1.26300
O56         O  0.93241928  0.38810673  0.33083765    -0.64800
O57         O  0.80287428  0.31170063  0.33788817    -0.77100
C58         C  0.83783153  0.26772603  0.28038330     0.86300
O59         O  0.82579132  0.26878123  0.31219924    -0.64300
Ni60       Ni  0.85038113  0.36093976  0.41524653     1.27400
Ni61       Ni  0.91630091  0.35779285  0.37411656     1.26100
H62         H  0.88997029  0.29492035  0.36370680     0.40900
O63         O  0.10387770  0.63519825  0.02822810    -0.79100
O64         O  0.02681919  0.52536416  0.15422795    -0.63800
O65         O  0.07776545  0.61238132  0.10094766    -1.10400
C66         C  0.17886006  0.59882568  0.12651567     1.07800
O67         O  0.06901650  0.53916433  0.19876019    -0.77000
O68         O  0.12543106  0.60645297  0.19586906    -0.64600
Ni69       Ni  0.05949858  0.61852813  0.05362381     1.34900
C70         C  0.13618825  0.63698106  0.18165870     0.86500
O71         O  0.00769339  0.57043902  0.12529095    -0.77500
O72         O  0.01331659  0.60312899  0.07399965    -0.87800
C73         C  0.03701988  0.52032391  0.18611504     0.86100
O74         O  0.04302370  0.57188081  0.03274133    -0.66000
O75         O  0.16218152  0.58132423  0.15509809    -0.85300
C76         C  0.03276331  0.54182880  0.04779377     0.86900
C77         C  0.99571597  0.58421122  0.10144844     1.08500
H78         H  0.09299201  0.54894742  0.11046101     0.40300
O79         O  0.09552481  0.56787428  0.12716977    -1.08000
O80         O  0.13748063  0.64246787  0.14641680    -0.64600
Ni81       Ni  0.12199846  0.61220714  0.10150492     1.26300
O82         O  0.03503899  0.53771653  0.08284415    -0.64800
O83         O  0.16564873  0.61076028  0.10210351    -0.77100
C84         C  0.13546768  0.65671956  0.04028775     0.86300
O85         O  0.14580327  0.65532748  0.07355807    -0.64300
Ni86       Ni  0.11447855  0.56152243  0.17409624     1.27400
Ni87       Ni  0.05126933  0.56851037  0.12681923     1.26100
H88         H  0.08017674  0.63145033  0.11735871     0.40900
O89         O  0.42413564  0.07696305  0.24836209    -0.79100
O90         O  0.46479950  0.00656517  0.37810745    -0.63800
O91         O  0.42718933  0.05666349  0.32327379    -1.10400
C92         C  0.54319554  0.15600708  0.33951013     1.07800
O93         O  0.49644273  0.05038358  0.41989909    -0.77000
O94         O  0.48435289  0.10625115  0.41313802    -0.64600
Ni95       Ni  0.39779699  0.03538342  0.27880415     1.34900
C96         C  0.46632103  0.11894374  0.39770140     0.86500
O97         O  0.39968949  0.98823970  0.35345756    -0.77500
O98         O  0.36756774  0.99173247  0.30461780    -0.87800
C99         C  0.48130357  0.01766515  0.40940668     0.86100
O100        O  0.42426139  0.01517018  0.25776183    -0.66000
O101        O  0.54404142  0.14143807  0.37030599    -0.85300
C102        C  0.44626321  0.00678721  0.27200344     0.86900
C103        C  0.37126950  0.97590667  0.33307916     1.08500
H104        H  0.50571931  0.06936078  0.33036211     0.40300
O105        O  0.49053660  0.07359280  0.34663472    -1.08000
O106        O  0.46219426  0.11993799  0.36221226    -0.64600
Ni107      Ni  0.47235652  0.09936868  0.31877624     1.26300
O108        O  0.45609438  0.01159350  0.30645508    -0.64800
O109        O  0.51813810  0.14123517  0.31477574    -0.77100
C110        C  0.43798333  0.10998318  0.25687665     0.86300
O111        O  0.45283404  0.12259316  0.28875947    -0.64300
Ni112      Ni  0.51775461  0.09471517  0.39235737     1.27400
Ni113      Ni  0.44536156  0.03060923  0.35017107     1.26100
H114        H  0.41279463  0.06128434  0.34033149     0.40900
O115        O  0.52912696  0.84089361  0.00049582    -0.79100
O116        O  0.49858743  0.91718984  0.12784762    -0.63800
O117        O  0.53483999  0.86599439  0.07454594    -1.10400
C118        C  0.42294156  0.76450685  0.09921220     1.07800
O119        O  0.47666339  0.87708744  0.17309535    -0.77000
O120        O  0.48812305  0.82083221  0.16769478    -0.64600
Ni121      Ni  0.55990774  0.88398554  0.02916480     1.34900
C122        C  0.50608048  0.80868567  0.15196428     0.86500
O123        O  0.56225467  0.93726719  0.09904572    -0.77500
O124        O  0.59310471  0.92847390  0.05401438    -0.87800
C125        C  0.48621912  0.90802055  0.16032146     0.86100
O126        O  0.53366443  0.90535763  0.00897944    -0.66000
O127        O  0.42415591  0.78212215  0.12861234    -0.85300
C128        C  0.51062613  0.91205105  0.02241540     0.86900
C129        C  0.59006623  0.94753639  0.07957744     1.08500
H130        H  0.45591844  0.84942170  0.08507207     0.40300
O131        O  0.47368905  0.84790295  0.10080445    -1.08000
O132        O  0.50751667  0.80600796  0.11647048    -0.64600
Ni133      Ni  0.49068397  0.82140066  0.07328671     1.26300
O134        O  0.50048822  0.90588704  0.05609153    -0.64800
O135        O  0.44575260  0.77729942  0.07338520    -0.77100
C136        C  0.51947007  0.80899481  0.00990800     0.86300
O137        O  0.50900949  0.79796147  0.04270314    -0.64300
Ni138      Ni  0.45230923  0.83050899  0.14819992     1.27400
Ni139      Ni  0.51755760  0.89280190  0.10033399     1.26100
H140        H  0.55148589  0.86397611  0.09163289     0.40900
C141        C  0.62439639  0.25876270  0.33255158     0.82000
N142        N  0.65879083  0.26621003  0.33701163    -0.76300
C143        C  0.68563192  0.30068852  0.34091213     0.84500
N144        N  0.67799926  0.32774536  0.34079806    -0.76200
C145        C  0.64358035  0.32033549  0.33635757     0.84600
N146        N  0.61678895  0.28581723  0.33246739    -0.77900
C147        C  0.34249758  0.66074538  0.10510187     0.82000
N148        N  0.30814294  0.65345897  0.10803352    -0.76300
C149        C  0.28180073  0.61967785  0.11550085     0.84500
N150        N  0.28990811  0.59316340  0.12018025    -0.76200
C151        C  0.32424407  0.60036173  0.11750072     0.84600
N152        N  0.35048395  0.63415367  0.10990284    -0.77900
O153        O  0.41312020  0.48128560  0.03117814    -0.79100
O154        O  0.29516750  0.42980705  0.15751059    -0.63800
O155        O  0.38155286  0.46958788  0.10265984    -1.10400
C156        C  0.35808385  0.34883873  0.10379595     1.07800
O157        O  0.31288740  0.40032082  0.19526979    -0.77000
O158        O  0.37417162  0.39951481  0.18444417    -0.64600
Ni159      Ni  0.38663026  0.49828298  0.05946659     1.34900
C160        C  0.40436047  0.42110742  0.17134733     0.86500
O161        O  0.34123475  0.49622068  0.13727583    -0.77500
O162        O  0.36272632  0.52118457  0.08200783    -0.87800
C163        C  0.29332622  0.41408819  0.18811284     0.86100
O164        O  0.34328452  0.46274807  0.03569727    -0.66000
O165        O  0.33965802  0.34464408  0.13274123    -0.85300
C166        C  0.31255563  0.44489611  0.04950963     0.86900
C167        C  0.34860040  0.52041115  0.11316185     1.08500
H168        H  0.31577431  0.39160872  0.10239777     0.40300
O169        O  0.33506253  0.40544549  0.12037451    -1.08000
O170        O  0.40882125  0.43216642  0.13783805    -0.64600
Ni171      Ni  0.37845446  0.42395461  0.09408691     1.26300
O172        O  0.30713078  0.44167598  0.08471473    -0.64800
O173        O  0.37394573  0.37788158  0.08579948    -0.77100
C174        C  0.42858833  0.46342153  0.03880503     0.86300
O175        O  0.42128746  0.44346420  0.06696390    -0.64300
Ni176      Ni  0.32722244  0.37446200  0.16198254     1.27400
Ni177      Ni  0.33770543  0.45052289  0.12913559     1.26100
H178        H  0.40117397  0.48395334  0.12010017     0.40900
O179        O  0.64544700  0.50677733  0.25112771    -0.79100
O180        O  0.54613620  0.47696108  0.38562091    -0.63800
O181        O  0.62822647  0.51324341  0.32553438    -1.10400
C182        C  0.62026728  0.40079784  0.34798152     1.07800
O183        O  0.56610773  0.45278872  0.42806044    -0.77000
O184        O  0.63189830  0.46125356  0.41900745    -0.64600
Ni185      Ni  0.62944250  0.53475231  0.27826624     1.34900
C186        C  0.66084373  0.48268266  0.40343758     0.86500
O187        O  0.58650501  0.54019661  0.35439621    -0.77500
O188        O  0.61428863  0.56537104  0.30082492    -0.87800
C189        C  0.54554326  0.46470680  0.41797164     0.86100
O190        O  0.58177444  0.50239015  0.26084295    -0.66000
O191        O  0.60265854  0.39901543  0.37689400    -0.85300
C192        C  0.55339905  0.48246489  0.27800796     0.86900
C193        C  0.59776399  0.56492347  0.33016077     1.08500
H194        H  0.56853457  0.43453368  0.33768149     0.40300
O195        O  0.58804740  0.45180076  0.35364034    -1.08000
O196        O  0.66359532  0.48791759  0.36817059    -0.64600
Ni197      Ni  0.63053969  0.47014947  0.32519423     1.26300
O198        O  0.55230573  0.47803992  0.31326777    -0.64800
O199        O  0.63178783  0.42635589  0.32492556    -0.77100
C200        C  0.66936146  0.49933470  0.26135255     0.86300
O201        O  0.67145127  0.48991311  0.29454223    -0.64300
Ni202      Ni  0.58522990  0.42787252  0.39982667     1.27400
Ni203      Ni  0.58659114  0.49563143  0.35470404     1.26100
H204        H  0.64806363  0.53119611  0.34063480     0.40900
C205        C  0.52043368  0.46519712  0.25641124    -0.16700
C206        C  0.49314166  0.45367492  0.23771937     0.07400
C207        C  0.46181397  0.44237551  0.21526864     0.09200
C208        C  0.43543458  0.43311308  0.19556259    -0.17600
C209        C  0.45496073  0.46524696  0.01372884    -0.16700
C210        C  0.47643896  0.46588125  0.49225216     0.07400
C211        C  0.50095754  0.46581535  0.46675516     0.09200
C212        C  0.52148615  0.46536741  0.44467411    -0.17600
C213        C  0.33257091  0.57188680  0.12084298    -0.11500
C214        C  0.33975482  0.54806455  0.12013372    -0.13000
C215        C  0.62814859  0.37246205  0.34157087    -0.11500
C216        C  0.63525897  0.34878701  0.33815552    -0.13000
C217        C  0.39448502  0.72769376  0.09629394    -0.11500
C218        C  0.37064162  0.69693212  0.09860942    -0.13000
C219        C  0.59587538  0.22218860  0.33116845    -0.11500
C220        C  0.57185490  0.19165241  0.33318647    -0.13000
C221        C  0.49674436  0.92933773  0.99854515    -0.16700
C222        C  0.48928855  0.94728409  0.97842959     0.07400
C223        C  0.48442650  0.97087110  0.45479352     0.09200
C224        C  0.48242205  0.99209944  0.43433736    -0.17600
C225        C  0.48326315  0.93347932  0.18396415    -0.16700
C226        C  0.47827371  0.95310119  0.20406551     0.07400
C227        C  0.46966565  0.97400165  0.22769927     0.09200
C228        C  0.46011882  0.99001573  0.24791491    -0.17600
C229        C  0.24536988  0.61203649  0.11873663    -0.11500
C230        C  0.21491843  0.60580270  0.12190977    -0.13000
C231        C  0.72188820  0.30836401  0.34687449    -0.11500
C232        C  0.75215934  0.31462715  0.35286075    -0.13000
C233        C  0.01555120  0.51046835  0.02399366    -0.16700
C234        C  0.99739754  0.48480887  0.50386935     0.07400
C235        C  0.97356928  0.45595523  0.48015453     0.09200
C236        C  0.95236217  0.43223182  0.45948384    -0.17600
C237        C  0.01142331  0.49253555  0.20935441    -0.16700
C238        C  0.99136418  0.46867116  0.22931265     0.07400
C239        C  0.96962287  0.44002810  0.25296843     0.09200
C240        C  0.95305253  0.41480890  0.27305075    -0.17600
C241        C  0.01071672  0.35296765  0.36480784    -0.16700
C242        C  0.04166418  0.36081261  0.36843266     0.07400
C243        C  0.07802139  0.37004364  0.37026960     0.09200
C244        C  0.10896791  0.37757076  0.37079456    -0.17600
C245        C  0.28244902  0.42854593  0.02359004    -0.16700
C246        C  0.25959208  0.41779115  0.49897294     0.07400
C247        C  0.23566914  0.40831090  0.46765936     0.09200
C248        C  0.21748113  0.40243381  0.43937912    -0.17600
C249        C  0.26981144  0.41301377  0.21668404    -0.16700
C250        C  0.25146181  0.41068278  0.24280662     0.07400
C251        C  0.23136671  0.40680124  0.27505836     0.09200
C252        C  0.21523553  0.40298582  0.30350847    -0.17600
C253        C  0.86152020  0.55163586  0.08980996    -0.16700
C254        C  0.89248174  0.56008788  0.09522137     0.07400
C255        C  0.92862163  0.56944085  0.10139674     0.09200
C256        C  0.95948651  0.57677337  0.10406205    -0.17600
C257        C  0.74839049  0.51379569  0.14687395    -0.16700
C258        C  0.73162253  0.50806699  0.17505524     0.07400
C259        C  0.71167550  0.50305681  0.20750016     0.09200
C260        C  0.69335450  0.50036567  0.23364458    -0.17600
C261        C  0.75686114  0.52646588  0.01201544    -0.16700
C262        C  0.73952010  0.52162799  0.48320351     0.07400
C263        C  0.71563590  0.51247483  0.45175782     0.09200
C264        C  0.69220719  0.50109135  0.42763389    -0.17600
C265        C  0.57055091  0.67059896  0.32811552    -0.16700
C266        C  0.57739088  0.64675710  0.33104519     0.07400
C267        C  0.58470295  0.61837393  0.33447522     0.09200
C268        C  0.59073237  0.59388857  0.33499684    -0.17600
C269        C  0.51937655  0.78504445  0.48172244    -0.16700
C270        C  0.52177158  0.76911069  0.45504854     0.07400
C271        C  0.52711713  0.75459244  0.42184122     0.09200
C272        C  0.53346469  0.74455430  0.39287470    -0.17600
C273        C  0.52450922  0.79605799  0.17617586    -0.16700
C274        C  0.53589206  0.78401895  0.19990684     0.07400
C275        C  0.54486055  0.76884734  0.23057924     0.09200
C276        C  0.54929257  0.75549255  0.25850462    -0.17600
C277        C  0.69647415  0.08041838  0.08803379    -0.16700
C278        C  0.67245295  0.04968723  0.08783276     0.07400
C279        C  0.64403985  0.01379786  0.08752869     0.09200
C280        C  0.61953673  0.98331242  0.08562684    -0.17600
C281        C  0.77445803  0.18701278  0.16174109    -0.16700
C282        C  0.78506580  0.20297042  0.19142842     0.07400
C283        C  0.79948531  0.22322577  0.22507323     0.09200
C284        C  0.81480744  0.24238950  0.25198867    -0.17600
C285        C  0.78028964  0.18999333  0.02609541    -0.16700
C286        C  0.79272061  0.20876443  0.49910979     0.07400
C287        C  0.80697676  0.23310494  0.46916440     0.09200
C288        C  0.81850967  0.25602331  0.44559345    -0.17600
C289        C  0.34189903  0.94142144  0.34195503    -0.16700
C290        C  0.31820118  0.91136143  0.34752967     0.07400
C291        C  0.29151297  0.87529590  0.35210867     0.09200
C292        C  0.26941589  0.84405929  0.35465323    -0.17600
C293        C  0.15996405  0.68202498  0.51435193    -0.16700
C294        C  0.17630925  0.70123306  0.48892145     0.07400
C295        C  0.19129586  0.72148475  0.45641488     0.09200
C296        C  0.20138639  0.73723882  0.42729826    -0.17600
C297        C  0.14858233  0.66691076  0.20742941    -0.16700
C298        C  0.16013228  0.68944027  0.23222665     0.07400
C299        C  0.17466784  0.71312701  0.26363473     0.09200
C300        C  0.18770526  0.73156390  0.29159640    -0.17600
C301        C  0.38487091  0.24581789  0.07124303    -0.16700
C302        C  0.37574380  0.26795164  0.07515458     0.07400
C303        C  0.36726683  0.29509438  0.08276450     0.09200
C304        C  0.36200151  0.31920001  0.09135140    -0.17600
C305        C  0.42510416  0.17455655  0.13850106    -0.16700
C306        C  0.43044761  0.16376562  0.16782390     0.07400
C307        C  0.43534175  0.14904208  0.20137642     0.09200
C308        C  0.43778550  0.13339999  0.22834120    -0.17600
C309        C  0.45068227  0.13383274  0.42209286    -0.16700
C310        C  0.44028712  0.14682659  0.44532001     0.07400
C311        C  0.43051423  0.16184781  0.97511541     0.09200
C312        C  0.42364247  0.17376113  0.00248601    -0.17600
C313        C  0.39768442  0.22072499  0.57049542     0.82000
N314        N  0.40385982  0.20924852  0.53732191    -0.76300
C315        C  0.41690353  0.18624374  0.53729689     0.84500
N316        N  0.42388785  0.17497896  0.57039084    -0.76200
C317        C  0.41781855  0.18654032  0.60346515     0.84600
N318        N  0.40471327  0.20936870  0.60345293    -0.77900
C319        C  0.24363745  0.80657215  0.85639157     0.82000
N320        N  0.22801074  0.78748137  0.82421003    -0.76300
C321        C  0.20378914  0.75199712  0.82569854     0.84500
N322        N  0.19532917  0.73559747  0.85942153    -0.76200
C323        C  0.21099899  0.75462824  0.89162858     0.84600
N324        N  0.23515013  0.79014136  0.89009862    -0.77900
C325        C  0.72473393  0.11719721  0.58979323     0.82000
N326        N  0.73641253  0.13413770  0.62372705    -0.76300
C327        C  0.76260507  0.16897339  0.62581143     0.84500
N328        N  0.77712288  0.18696497  0.59387669    -0.76200
C329        C  0.76556656  0.17015494  0.55982908     0.84600
N330        N  0.73923087  0.13523462  0.55777463    -0.77900
C331        C  0.56127087  0.69828648  0.82694830     0.82000
N332        N  0.55220728  0.70830633  0.85913120    -0.76300
C333        C  0.54263844  0.73387749  0.85857010     0.84500
N334        N  0.54215690  0.74954830  0.82570908    -0.76200
C335        C  0.55126564  0.73963523  0.79337668     0.84600
N336        N  0.56072920  0.71385259  0.79395230    -0.77900
C337        C  0.82430207  0.54100444  0.58577175     0.82000
N338        N  0.80906494  0.53937688  0.55134939    -0.76300
C339        C  0.77374643  0.52921366  0.54824196     0.84500
N340        N  0.75382906  0.52061106  0.57947784    -0.76200
C341        C  0.76910901  0.52219089  0.61373632     0.84600
N342        N  0.80428441  0.53240631  0.61682949    -0.77900
C343        C  0.14568027  0.38607686  0.87100035     0.82000
N344        N  0.16251376  0.39035805  0.83805427    -0.76300
C345        C  0.19720011  0.39830399  0.83828054     0.84500
N346        N  0.21497966  0.40192803  0.87146781    -0.76200
C347        C  0.19816763  0.39760404  0.90439277     0.84600
N348        N  0.16353132  0.38974919  0.90416146    -0.77900
O349        O  0.86980956  0.28957365  0.77183645    -0.79100
O350        O  0.93819625  0.40117132  0.90259950    -0.63800
O351        O  0.89220459  0.31341604  0.84684333    -1.10400
C352        C  0.78809640  0.32228883  0.86120230     1.07800
O353        O  0.89523736  0.38501252  0.94397503    -0.77000
O354        O  0.84099708  0.31653108  0.93620401    -0.64600
Ni355      Ni  0.91312566  0.30771674  0.80229380     1.34900
C356        C  0.83099032  0.28617737  0.92099839     0.86500
O357        O  0.96092409  0.35828084  0.87779841    -0.77500
O358        O  0.95856282  0.32460024  0.82812323    -0.87800
C359        C  0.92726682  0.40491637  0.93395526     0.86100
O360        O  0.92917351  0.35391624  0.78170782    -0.66000
O361        O  0.80316681  0.33922338  0.89174872    -0.85300
C362        C  0.93683110  0.38382867  0.79643090     0.86900
C363        C  0.97455712  0.34455252  0.85677102     1.08500
H364        H  0.87319339  0.37477469  0.85351560     0.40300
O365        O  0.87113780  0.35611015  0.87002336    -1.08000
O366        O  0.83055272  0.28105677  0.88562878    -0.64600
Ni367      Ni  0.84714567  0.31175725  0.84221093     1.26300
O368        O  0.93241921  0.38810672  0.83083759    -0.64800
O369        O  0.80287429  0.31170064  0.83788814    -0.77100
C370        C  0.83783153  0.26772599  0.78038331     0.86300
O371        O  0.82579132  0.26878123  0.81219923    -0.64300
Ni372      Ni  0.85038113  0.36093970  0.91524655     1.27400
Ni373      Ni  0.91630091  0.35779288  0.87411652     1.26100
H374        H  0.88997030  0.29492037  0.86370682     0.40900
O375        O  0.10387777  0.63519827  0.52822810    -0.79100
O376        O  0.02681915  0.52536417  0.65422788    -0.63800
O377        O  0.07776550  0.61238136  0.60094765    -1.10400
C378        C  0.17886005  0.59882566  0.62651573     1.07800
O379        O  0.06901640  0.53916435  0.69876019    -0.77000
O380        O  0.12543093  0.60645298  0.69586907    -0.64600
Ni381      Ni  0.05949865  0.61852821  0.55362380     1.34900
C382        C  0.13618824  0.63698109  0.68165871     0.86500
O383        O  0.00769341  0.57043903  0.62529084    -0.77500
O384        O  0.01331668  0.60312914  0.57399965    -0.87800
C385        C  0.03701979  0.52032394  0.68611501     0.86100
O386        O  0.04302367  0.57188087  0.53274131    -0.66000
O387        O  0.16218150  0.58132428  0.65509819    -0.85300
C388        C  0.03276333  0.54182885  0.54779373     0.86900
C389        C  0.99571603  0.58421130  0.60144839     1.08500
H390        H  0.09299203  0.54894743  0.61046104     0.40300
O391        O  0.09552481  0.56787430  0.62716978    -1.08000
O392        O  0.13748071  0.64246790  0.64641680    -0.64600
Ni393      Ni  0.12199849  0.61220715  0.60150493     1.26300
O394        O  0.03503906  0.53771658  0.58284409    -0.64800
O395        O  0.16564873  0.61076022  0.60210351    -0.77100
C396        C  0.13546775  0.65671959  0.54028776     0.86300
O397        O  0.14580334  0.65532749  0.57355807    -0.64300
Ni398      Ni  0.11447849  0.56152246  0.67409629     1.27400
Ni399      Ni  0.05126934  0.56851039  0.62681918     1.26100
H400        H  0.08017680  0.63145036  0.61735872     0.40900
O401        O  0.42413564  0.07696297  0.74836204    -0.79100
O402        O  0.46479948  0.00656512  0.87810744    -0.63800
O403        O  0.42718931  0.05666341  0.82327375    -1.10400
C404        C  0.54319552  0.15600701  0.83951017     1.07800
O405        O  0.49644264  0.05038351  0.91989913    -0.77000
O406        O  0.48435286  0.10625111  0.91313804    -0.64600
Ni407      Ni  0.39779697  0.03538334  0.77880410     1.34900
C408        C  0.46632097  0.11894367  0.89770139     0.86500
O409        O  0.39968950  0.98823963  0.85345749    -0.77500
O410        O  0.36756771  0.99173241  0.80461777    -0.87800
C411        C  0.48130351  0.01766508  0.90940669     0.86100
O412        O  0.42426135  0.01517007  0.75776183    -0.66000
O413        O  0.54404141  0.14143799  0.87030603    -0.85300
C414        C  0.44626321  0.00678714  0.77200344     0.86900
C415        C  0.37126950  0.97590661  0.83307912     1.08500
H416        H  0.50571930  0.06936075  0.83036214     0.40300
O417        O  0.49053658  0.07359275  0.84663474    -1.08000
O418        O  0.46219418  0.11993788  0.86221226    -0.64600
Ni419      Ni  0.47235650  0.09936861  0.81877624     1.26300
O420        O  0.45609441  0.01159348  0.80645507    -0.64800
O421        O  0.51813807  0.14123512  0.81477579    -0.77100
C422        C  0.43798333  0.10998310  0.75687661     0.86300
O423        O  0.45283401  0.12259307  0.78875945    -0.64300
Ni424      Ni  0.51775456  0.09471510  0.89235740     1.27400
Ni425      Ni  0.44536154  0.03060917  0.85017105     1.26100
H426        H  0.41279460  0.06128425  0.84033145     0.40900
O427        O  0.52912692  0.84089359  0.50049586    -0.79100
O428        O  0.49858733  0.91718980  0.62784758    -0.63800
O429        O  0.53483997  0.86599440  0.57454596    -1.10400
C430        C  0.42294158  0.76450681  0.59921221     1.07800
O431        O  0.47666329  0.87708741  0.67309531    -0.77000
O432        O  0.48812303  0.82083221  0.66769479    -0.64600
Ni433      Ni  0.55990770  0.88398554  0.52916483     1.34900
C434        C  0.50608047  0.80868568  0.65196430     0.86500
O435        O  0.56225459  0.93726721  0.59904572    -0.77500
O436        O  0.59310466  0.92847391  0.55401440    -0.87800
C437        C  0.48621904  0.90802053  0.66032142     0.86100
O438        O  0.53366440  0.90535761  0.50897944    -0.66000
O439        O  0.42415590  0.78212212  0.62861233    -0.85300
C440        C  0.51062609  0.91205103  0.52241538     0.86900
C441        C  0.59006616  0.94753641  0.57957744     1.08500
H442        H  0.45591841  0.84942165  0.58507205     0.40300
O443        O  0.47368901  0.84790292  0.60080443    -1.08000
O444        O  0.50751670  0.80600798  0.61647050    -0.64600
Ni445      Ni  0.49068398  0.82140065  0.57328673     1.26300
O446        O  0.50048818  0.90588703  0.55609151    -0.64800
O447        O  0.44575263  0.77729938  0.57338523    -0.77100
C448        C  0.51947008  0.80899481  0.50990803     0.86300
O449        O  0.50900955  0.79796148  0.54270319    -0.64300
Ni450      Ni  0.45230918  0.83050896  0.64819990     1.27400
Ni451      Ni  0.51755754  0.89280190  0.60033399     1.26100
H452        H  0.55148589  0.86397615  0.59163293     0.40900
C453        C  0.62439637  0.25876261  0.83255161     0.82000
N454        N  0.65879082  0.26620996  0.83701165    -0.76300
C455        C  0.68563189  0.30068846  0.84091215     0.84500
N456        N  0.67799922  0.32774529  0.84079809    -0.76200
C457        C  0.64358030  0.32033540  0.83635762     0.84600
N458        N  0.61678891  0.28581713  0.83246743    -0.77900
C459        C  0.34249757  0.66074534  0.60510191     0.82000
N460        N  0.30814294  0.65345892  0.60803357    -0.76300
C461        C  0.28180072  0.61967779  0.61550088     0.84500
N462        N  0.28990811  0.59316334  0.62018026    -0.76200
C463        C  0.32424406  0.60036169  0.61750074     0.84600
N464        N  0.35048395  0.63415362  0.60990287    -0.77900
O465        O  0.41312016  0.48128556  0.53117816    -0.79100
O466        O  0.29516739  0.42980698  0.65751056    -0.63800
O467        O  0.38155277  0.46958781  0.60265984    -1.10400
C468        C  0.35808378  0.34883868  0.60379596     1.07800
O469        O  0.31288724  0.40032071  0.69526976    -0.77000
O470        O  0.37417150  0.39951478  0.68444416    -0.64600
Ni471      Ni  0.38663024  0.49828295  0.55946662     1.34900
C472        C  0.40436035  0.42110739  0.67134732     0.86500
O473        O  0.34123466  0.49622060  0.63727583    -0.77500
O474        O  0.36272634  0.52118457  0.58200788    -0.87800
C475        C  0.29332611  0.41408813  0.68811282     0.86100
O476        O  0.34328449  0.46274810  0.53569726    -0.66000
O477        O  0.33965793  0.34464402  0.63274123    -0.85300
C478        C  0.31255559  0.44489610  0.54950960     0.86900
C479        C  0.34860037  0.52041111  0.61316188     1.08500
H480        H  0.31577419  0.39160865  0.60239774     0.40300
O481        O  0.33506241  0.40544541  0.62037449    -1.08000
O482        O  0.40882114  0.43216637  0.63783803    -0.64600
Ni483      Ni  0.37845435  0.42395454  0.59408690     1.26300
O484        O  0.30713072  0.44167594  0.58471471    -0.64800
O485        O  0.37394562  0.37788152  0.58579947    -0.77100
C486        C  0.42858826  0.46342145  0.53880505     0.86300
O487        O  0.42128735  0.44346411  0.56696390    -0.64300
Ni488      Ni  0.32722232  0.37446193  0.66198252     1.27400
Ni489      Ni  0.33770533  0.45052281  0.62913557     1.26100
H490        H  0.40117385  0.48395323  0.62010019     0.40900
O491        O  0.64544691  0.50677721  0.75112769    -0.79100
O492        O  0.54613618  0.47696107  0.88562088    -0.63800
O493        O  0.62822643  0.51324338  0.82553433    -1.10400
C494        C  0.62026724  0.40079779  0.84798149     1.07800
O495        O  0.56610773  0.45278872  0.92806041    -0.77000
O496        O  0.63189830  0.46125354  0.91900739    -0.64600
Ni497      Ni  0.62944243  0.53475223  0.77826618     1.34900
C498        C  0.66084371  0.48268267  0.90343753     0.86500
O499        O  0.58650499  0.54019660  0.85439617    -0.77500
O500        O  0.61428857  0.56537099  0.80082485    -0.87800
C501        C  0.54554325  0.46470678  0.91797162     0.86100
O502        O  0.58177436  0.50239007  0.76084292    -0.66000
O503        O  0.60265847  0.39901538  0.87689395    -0.85300
C504        C  0.55339897  0.48246487  0.77800794     0.86900
C505        C  0.59776395  0.56492344  0.83016071     1.08500
H506        H  0.56853454  0.43453366  0.83768144     0.40300
O507        O  0.58804738  0.45180075  0.85364030    -1.08000
O508        O  0.66359530  0.48791762  0.86817055    -0.64600
Ni509      Ni  0.63053968  0.47014946  0.82519419     1.26300
O510        O  0.55230567  0.47803991  0.81326775    -0.64800
O511        O  0.63178783  0.42635587  0.82492555    -0.77100
C512        C  0.66936144  0.49933468  0.76135253     0.86300
O513        O  0.67145128  0.48991312  0.79454222    -0.64300
Ni514      Ni  0.58522987  0.42787250  0.89982663     1.27400
Ni515      Ni  0.58659111  0.49563141  0.85470400     1.26100
H516        H  0.64806360  0.53119610  0.84063474     0.40900
C517        C  0.52043359  0.46519713  0.75641124    -0.16700
C518        C  0.49314157  0.45367496  0.73771937     0.07400
C519        C  0.46181388  0.44237554  0.71526862     0.09200
C520        C  0.43543448  0.43311309  0.69556258    -0.17600
C521        C  0.45496066  0.46524686  0.51372887    -0.16700
C522        C  0.47643902  0.46588134  0.99225214     0.07400
C523        C  0.50095757  0.46581537  0.96675514     0.09200
C524        C  0.52148616  0.46536739  0.94467410    -0.17600
C525        C  0.33257091  0.57188676  0.62084300    -0.11500
C526        C  0.33975481  0.54806451  0.62013375    -0.13000
C527        C  0.62814852  0.37246198  0.84157086    -0.11500
C528        C  0.63525890  0.34878692  0.83815556    -0.13000
C529        C  0.39448504  0.72769371  0.59629396    -0.11500
C530        C  0.37064163  0.69693208  0.59860946    -0.13000
C531        C  0.59587538  0.22218851  0.83116848    -0.11500
C532        C  0.57185490  0.19165232  0.83318650    -0.13000
C533        C  0.49674437  0.92933773  0.49854512    -0.16700
C534        C  0.48928860  0.94728414  0.47842955     0.07400
C535        C  0.48442640  0.97087101  0.95479353     0.09200
C536        C  0.48242195  0.99209935  0.93433736    -0.17600
C537        C  0.48326315  0.93347932  0.68396413    -0.16700
C538        C  0.47827374  0.95310119  0.70406550     0.07400
C539        C  0.46966566  0.97400161  0.72769929     0.09200
C540        C  0.46011882  0.99001566  0.74791493    -0.17600
C541        C  0.24536986  0.61203642  0.61873667    -0.11500
C542        C  0.21491842  0.60580262  0.62190985    -0.13000
C543        C  0.72188819  0.30836397  0.84687451    -0.11500
C544        C  0.75215932  0.31462710  0.85286077    -0.13000
C545        C  0.01555120  0.51046840  0.52399362    -0.16700
C546        C  0.99739756  0.48480885  0.00386935     0.07400
C547        C  0.97356930  0.45595526  0.98015447     0.09200
C548        C  0.95236219  0.43223185  0.95948377    -0.17600
C549        C  0.01142318  0.49253560  0.70935437    -0.16700
C550        C  0.99136405  0.46867121  0.72931261     0.07400
C551        C  0.96962279  0.44002811  0.75296838     0.09200
C552        C  0.95305249  0.41480888  0.77305069    -0.17600
C553        C  0.01071672  0.35296766  0.86480785    -0.16700
C554        C  0.04166417  0.36081260  0.86843269     0.07400
C555        C  0.07802139  0.37004365  0.87026963     0.09200
C556        C  0.10896792  0.37757080  0.87079459    -0.17600
C557        C  0.28244899  0.42854591  0.52359001    -0.16700
C558        C  0.25959211  0.41779117  0.99897296     0.07400
C559        C  0.23566916  0.40831090  0.96765938     0.09200
C560        C  0.21748114  0.40243382  0.93937915    -0.17600
C561        C  0.26981138  0.41301378  0.71668403    -0.16700
C562        C  0.25146178  0.41068280  0.74280663     0.07400
C563        C  0.23136668  0.40680124  0.77505838     0.09200
C564        C  0.21523551  0.40298581  0.80350850    -0.17600
C565        C  0.86152026  0.55163592  0.58980996    -0.16700
C566        C  0.89248181  0.56008795  0.59522140     0.07400
C567        C  0.92862169  0.56944094  0.60139676     0.09200
C568        C  0.95948657  0.57677347  0.60406203    -0.17600
C569        C  0.74839055  0.51379568  0.64687397    -0.16700
C570        C  0.73162258  0.50806697  0.67505526     0.07400
C571        C  0.71167553  0.50305682  0.70750016     0.09200
C572        C  0.69335452  0.50036570  0.73364456    -0.17600
C573        C  0.75686121  0.52646598  0.51201546    -0.16700
C574        C  0.73952006  0.52162790  0.98320348     0.07400
C575        C  0.71563589  0.51247479  0.95175776     0.09200
C576        C  0.69220718  0.50109135  0.92763384    -0.17600
C577        C  0.57055093  0.67059897  0.82811553    -0.16700
C578        C  0.57739085  0.64675708  0.83104520     0.07400
C579        C  0.58470290  0.61837389  0.83447521     0.09200
C580        C  0.59073232  0.59388853  0.83499679    -0.17600
C581        C  0.51937654  0.78504445  0.98172242    -0.16700
C582        C  0.52177157  0.76911068  0.95504853     0.07400
C583        C  0.52711715  0.75459243  0.92184123     0.09200
C584        C  0.53346473  0.74455432  0.89287472    -0.17600
C585        C  0.52450919  0.79605796  0.67617587    -0.16700
C586        C  0.53589202  0.78401889  0.69990683     0.07400
C587        C  0.54486052  0.76884729  0.73057923     0.09200
C588        C  0.54929258  0.75549256  0.75850464    -0.17600
C589        C  0.69647413  0.08041839  0.58803379    -0.16700
C590        C  0.67245290  0.04968725  0.58783278     0.07400
C591        C  0.64403978  0.01379789  0.58752870     0.09200
C592        C  0.61953665  0.98331246  0.58562684    -0.17600
C593        C  0.77445809  0.18701278  0.66174106    -0.16700
C594        C  0.78506579  0.20297039  0.69142842     0.07400
C595        C  0.79948528  0.22322571  0.72507325     0.09200
C596        C  0.81480742  0.24238944  0.75198869    -0.17600
C597        C  0.78028962  0.18999331  0.52609536    -0.16700
C598        C  0.79272064  0.20876444  0.99910984     0.07400
C599        C  0.80697681  0.23310491  0.96916442     0.09200
C600        C  0.81850973  0.25602327  0.94559344    -0.17600
C601        C  0.34189903  0.94142140  0.84195503    -0.16700
C602        C  0.31820116  0.91136142  0.84752971     0.07400
C603        C  0.29151289  0.87529592  0.85210873     0.09200
C604        C  0.26941579  0.84405933  0.85465329    -0.17600
C605        C  0.15996398  0.68202492  0.01435191    -0.16700
C606        C  0.17630917  0.70123301  0.98892143     0.07400
C607        C  0.19129579  0.72148474  0.95641488     0.09200
C608        C  0.20138636  0.73723883  0.92729828    -0.17600
C609        C  0.14858234  0.66691079  0.70742942    -0.16700
C610        C  0.16013229  0.68944028  0.73222669     0.07400
C611        C  0.17466785  0.71312702  0.76363476     0.09200
C612        C  0.18770527  0.73156393  0.79159642    -0.17600
C613        C  0.38487094  0.24581792  0.57124304    -0.16700
C614        C  0.37574389  0.26795171  0.57515460     0.07400
C615        C  0.36726690  0.29509443  0.58276454     0.09200
C616        C  0.36200151  0.31920001  0.59135144    -0.17600
C617        C  0.42510411  0.17455656  0.63850112    -0.16700
C618        C  0.43044758  0.16376564  0.66782397     0.07400
C619        C  0.43534176  0.14904207  0.70137644     0.09200
C620        C  0.43778552  0.13339993  0.72834117    -0.17600
C621        C  0.45068222  0.13383269  0.92209284    -0.16700
C622        C  0.44028710  0.14682657  0.94531997     0.07400
C623        C  0.43051422  0.16184779  0.47511547     0.09200
C624        C  0.42364244  0.17376109  0.50248607    -0.17600
loop_ 
_geom_bond_atom_site_label_1 
_geom_bond_atom_site_label_2 
_geom_bond_distance 
_geom_bond_site_symmetry_2 
_ccdc_geom_bond_type 
C1            N2   1.360       .  A
C1            N6   1.357       .  A
C1          C301   1.437       .  S
N2            C3   1.360       .  A
C3            N4   1.358       .  A
C3          C312   1.441       .  S
N4            C5   1.357       .  A
C5            N6   1.355       .  A
C5          C305   1.438       .  S
C7            N8   1.358       .  A
C7           N12   1.358       .  A
C7          C292   1.436       .  S
N8            C9   1.357       .  A
C9           N10   1.358       .  A
C9          C300   1.439       .  S
N10          C11   1.358       .  A
C11          N12   1.357       .  A
C11         C296   1.438       .  S
C13          N14   1.357       .  A
C13          N18   1.361       .  A
C13         C277   1.439       .  S
N14          C15   1.356       .  A
C15          N16   1.358       .  A
C15         C281   1.437       .  S
N16          C17   1.358       .  A
C17          N18   1.360       .  A
C17         C285   1.442       .  S
C19          N20   1.355       .  A
C19          N24   1.360       .  A
C19         C265   1.434       .  S
N20          C21   1.354       .  A
C21          N22   1.357       .  A
C21         C272   1.435       .  S
N22          C23   1.358       .  A
C23          N24   1.360       .  A
C23         C276   1.440       .  S
C25          N26   1.361       .  A
C25          N30   1.355       .  A
C25         C253   1.436       .  S
N26          C27   1.360       .  A
C27          N28   1.358       .  A
C27         C261   1.440       .  S
N28          C29   1.357       .  A
C29          N30   1.354       .  A
C29         C257   1.433       .  S
C31          N32   1.359       .  A
C31          N36   1.357       .  A
C31         C244   1.436       .  S
N32          C33   1.358       .  A
C33          N34   1.357       .  A
C33         C252   1.439       .  S
N34          C35   1.357       .  A
C35          N36   1.357       .  A
C35         C248   1.436       .  S
O37         Ni43   1.927       .  S
O37          C58   1.269       .  A
O38         Ni61   1.894       .  S
O38          C47   1.262       .  A
O39         Ni43   1.917       .  S
O39         Ni61   1.905       .  S
O39         Ni55   1.911       .  S
O39          H62   0.966       .  S
C40         C232   1.437       .  S
C40          O57   1.270       .  A
C40          O49   1.274       .  A
O41         Ni60   1.939       .  S
O41          C47   1.272       .  A
O42         Ni60   1.905       .  S
O42          C44   1.268       .  A
Ni43         O46   1.923       .  S
Ni43         O48   1.907       .  S
C44         C288   1.441       .  S
C44          O54   1.275       .  A
O45         Ni61   1.915       .  S
O45          C51   1.272       .  A
O46          C51   1.273       .  A
C47         C236   1.434       .  S
O48          C50   1.266       .  A
O49         Ni60   1.932       .  S
C50         C240   1.438       .  S
C50          O56   1.270       .  A
C51         C241   1.435   1_655  S
H52          O53   0.966       .  S
O53         Ni61   1.914       .  S
O53         Ni55   1.914       .  S
O53         Ni60   1.920       .  S
O54         Ni55   1.943       .  S
Ni55         O59   1.911       .  S
Ni55         O57   1.910       .  S
O56         Ni61   1.930       .  S
C58         C284   1.435       .  S
C58          O59   1.267       .  A
O63         Ni69   1.928       .  S
O63          C84   1.269       .  A
O64         Ni87   1.905       .  S
O64          C73   1.265       .  A
O65         Ni69   1.916       .  S
O65         Ni87   1.907       .  S
O65         Ni81   1.910       .  S
O65          H88   0.966       .  S
C66         C230   1.443       .  S
C66          O83   1.270       .  A
C66          O75   1.274       .  A
O67         Ni86   1.937       .  S
O67          C73   1.271       .  A
O68         Ni86   1.904       .  S
O68          C70   1.268       .  A
Ni69         O72   1.921       .  S
Ni69         O74   1.905       .  S
C70         C297   1.438       .  S
C70          O80   1.275       .  A
O71         Ni87   1.921       .  S
O71          C77   1.275   1_455  A
O72          C77   1.273   1_455  A
C73         C237   1.439       .  S
O74          C76   1.266       .  A
O75         Ni86   1.934       .  S
C76         C233   1.433       .  S
C76          O82   1.269       .  A
C77         C256   1.435       .  S
H78          O79   0.966       .  S
O79         Ni87   1.921       .  S
O79         Ni81   1.917       .  S
O79         Ni86   1.921       .  S
O80         Ni81   1.940       .  S
Ni81         O85   1.912       .  S
Ni81         O83   1.913       .  S
O82         Ni87   1.924       .  S
C84         C605   1.437       .  S
C84          O85   1.267       .  A
O89         Ni95   1.929       .  S
O89         C110   1.269       .  A
O90        Ni113   1.895       .  S
O90          C99   1.262       .  A
O91         Ni95   1.919       .  S
O91        Ni113   1.906       .  S
O91        Ni107   1.911       .  S
O91         H114   0.966       .  S
C92         C220   1.436       .  S
C92         O109   1.269       .  A
C92         O101   1.274       .  A
O93        Ni112   1.939       .  S
O93          C99   1.272       .  A
O94        Ni112   1.905       .  S
O94          C96   1.268       .  A
Ni95         O98   1.926   1_545  S
Ni95        O100   1.909       .  S
C96         C309   1.440       .  S
C96         O106   1.275       .  A
O97        Ni113   1.912   1_565  S
O97         C103   1.271       .  A
O98         C103   1.273       .  A
C99         C224   1.435   1_545  S
O100        C102   1.267       .  A
O101       Ni112   1.932       .  S
C102        C228   1.436   1_545  S
C102        O108   1.269       .  A
C103        C289   1.435       .  S
H104        O105   0.966       .  S
O105       Ni113   1.913       .  S
O105       Ni107   1.914       .  S
O105       Ni112   1.919       .  S
O106       Ni107   1.943       .  S
Ni107       O111   1.910       .  S
Ni107       O109   1.908       .  S
O108       Ni113   1.925       .  S
C110        C308   1.436       .  S
C110        O111   1.267       .  A
O115       Ni121   1.926       .  S
O115        C136   1.270       .  A
O116       Ni139   1.901       .  S
O116        C125   1.265       .  A
O117       Ni121   1.908       .  S
O117       Ni139   1.900       .  S
O117       Ni133   1.915       .  S
O117        H140   0.966       .  S
C118        C217   1.444       .  S
C118        O135   1.275       .  A
C118        O127   1.274       .  A
O119       Ni138   1.937       .  S
O119        C125   1.272       .  A
O120       Ni138   1.905       .  S
O120        C122   1.268       .  A
Ni121       O124   1.922       .  S
Ni121       O126   1.909       .  S
C122        C273   1.438       .  S
C122        O132   1.274       .  A
O123       Ni139   1.927       .  S
O123        C129   1.276       .  A
O124        C129   1.275       .  A
C125        C225   1.436       .  S
O126        C128   1.267       .  A
O127       Ni138   1.931       .  S
C128        C221   1.434   1_554  S
C128        O134   1.269       .  A
C129        C280   1.438       .  S
H130        O131   0.966       .  S
O131       Ni139   1.917       .  S
O131       Ni133   1.912       .  S
O131       Ni138   1.912       .  S
O132       Ni133   1.939       .  S
Ni133       O137   1.911       .  S
Ni133       O135   1.923       .  S
O134       Ni139   1.924       .  S
C136        C581   1.434   1_554  S
C136        O137   1.268       .  A
C141        N142   1.357       .  A
C141        N146   1.358       .  A
C141        C219   1.436       .  S
N142        C143   1.357       .  A
C143        N144   1.358       .  A
C143        C231   1.438       .  S
N144        C145   1.359       .  A
C145        N146   1.358       .  A
C145        C216   1.439       .  S
C147        N148   1.360       .  A
C147        N152   1.359       .  A
C147        C218   1.445       .  S
N148        C149   1.360       .  A
C149        N150   1.359       .  A
C149        C229   1.443       .  S
N150        C151   1.359       .  A
C151        N152   1.360       .  A
C151        C213   1.443       .  S
O153       Ni159   1.933       .  S
O153        C174   1.270       .  A
O154       Ni177   1.910       .  S
O154        C163   1.268       .  A
O155       Ni159   1.923       .  S
O155       Ni177   1.920       .  S
O155       Ni171   1.923       .  S
O155        H178   0.966       .  S
C156        C304   1.437       .  S
C156        O173   1.272       .  A
C156        O165   1.274       .  A
O157       Ni176   1.932       .  S
O157        C163   1.271       .  A
O158       Ni176   1.908       .  S
O158        C160   1.267       .  A
Ni159       O162   1.929       .  S
Ni159       O164   1.901       .  S
C160        C208   1.434       .  S
C160        O170   1.269       .  A
O161       Ni177   1.916       .  S
O161        C167   1.270       .  A
O162        C167   1.271       .  A
C163        C249   1.438       .  S
O164        C166   1.269       .  A
O165       Ni176   1.928       .  S
C166        C245   1.434       .  S
C166        O172   1.276       .  A
C167        C214   1.441       .  S
H168        O169   0.966       .  S
O169       Ni177   1.910       .  S
O169       Ni171   1.902       .  S
O169       Ni176   1.918       .  S
O170       Ni171   1.923       .  S
Ni171       O175   1.897       .  S
Ni171       O173   1.914       .  S
O172       Ni177   1.943       .  S
C174        C209   1.434       .  S
C174        O175   1.263       .  A
O179       Ni185   1.926       .  S
O179        C200   1.268       .  A
O180       Ni203   1.899       .  S
O180        C189   1.264       .  A
O181       Ni185   1.913       .  S
O181       Ni203   1.902       .  S
O181       Ni197   1.906       .  S
O181        H204   0.966       .  S
C182        C215   1.438       .  S
C182        O199   1.270       .  A
C182        O191   1.274       .  A
O183       Ni202   1.937       .  S
O183        C189   1.271       .  A
O184       Ni202   1.904       .  S
O184        C186   1.268       .  A
Ni185       O188   1.919       .  S
Ni185       O190   1.905       .  S
C186        C264   1.438       .  S
C186        O196   1.274       .  A
O187       Ni203   1.920       .  S
O187        C193   1.275       .  A
O188        C193   1.273       .  A
C189        C212   1.434       .  S
O190        C192   1.266       .  A
O191       Ni202   1.930       .  S
C192        C205   1.433       .  S
C192        O198   1.269       .  A
C193        C268   1.433       .  S
H194        O195   0.966       .  S
O195       Ni203   1.919       .  S
O195       Ni197   1.914       .  S
O195       Ni202   1.917       .  S
O196       Ni197   1.937       .  S
Ni197       O201   1.906       .  S
Ni197       O199   1.912       .  S
O198       Ni203   1.924       .  S
C200        C260   1.431       .  S
C200        O201   1.266       .  A
C205        C206   1.205       .  T
C206        C207   1.410       .  S
C207        C208   1.205       .  T
C209        C522   1.205   1_554  T
C210        C521   1.205       .  T
C210        C211   1.411       .  S
C211        C212   1.205       .  T
C213        C214   1.210       .  T
C215        C216   1.208       .  T
C217        C218   1.211       .  T
C219        C220   1.206       .  T
C221        C222   1.205       .  T
C222        C535   1.411       .  S
C223        C224   1.205       .  T
C223        C534   1.411       .  S
C225        C226   1.206       .  T
C226        C227   1.413       .  S
C227        C228   1.206       .  T
C229        C230   1.210       .  T
C231        C232   1.207       .  T
C233        C546   1.205   1_455  T
C234        C545   1.205   1_655  T
C234        C235   1.410       .  S
C235        C236   1.205       .  T
C237        C238   1.208   1_455  T
C238        C239   1.416       .  S
C239        C240   1.208       .  T
C241        C242   1.206       .  T
C242        C243   1.412       .  S
C243        C244   1.206       .  T
C245        C558   1.205   1_554  T
C246        C557   1.205       .  T
C246        C247   1.412       .  S
C247        C248   1.206       .  T
C249        C250   1.208       .  T
C250        C251   1.415       .  S
C251        C252   1.208       .  T
C253        C254   1.206       .  T
C254        C255   1.413       .  S
C255        C256   1.206       .  T
C257        C258   1.204       .  T
C258        C259   1.409       .  S
C259        C260   1.204       .  T
C261        C574   1.208   1_554  T
C262        C573   1.208       .  T
C262        C263   1.416       .  S
C263        C264   1.208       .  T
C265        C266   1.205       .  T
C266        C267   1.410       .  S
C267        C268   1.204       .  T
C269        C448   1.434       .  S
C269        C270   1.205       .  T
C270        C271   1.411       .  S
C271        C272   1.205       .  T
C273        C274   1.208       .  T
C274        C275   1.415       .  S
C275        C276   1.208       .  T
C277        C278   1.208       .  T
C278        C279   1.415       .  S
C279        C280   1.208   1_545  T
C281        C282   1.206       .  T
C282        C283   1.413       .  S
C283        C284   1.206       .  T
C285        C598   1.210   1_554  T
C286        C597   1.210       .  T
C286        C287   1.418       .  S
C287        C288   1.210       .  T
C289        C290   1.206       .  T
C290        C291   1.412       .  S
C291        C292   1.206       .  T
C293        C396   1.437       .  S
C293        C294   1.207       .  T
C294        C295   1.414       .  S
C295        C296   1.207       .  T
C297        C298   1.207       .  T
C298        C299   1.415       .  S
C299        C300   1.208       .  T
C301        C302   1.207       .  T
C302        C303   1.414       .  S
C303        C304   1.207       .  T
C305        C306   1.207       .  T
C306        C307   1.414       .  S
C307        C308   1.207       .  T
C309        C310   1.209       .  T
C310        C623   1.417       .  S
C311        C312   1.209   1_556  T
C311        C622   1.417       .  S
C313        N314   1.360       .  A
C313        N318   1.357       .  A
C313        C613   1.437       .  S
N314        C315   1.360       .  A
C315        N316   1.358       .  A
C315        C624   1.441       .  S
N316        C317   1.357       .  A
C317        N318   1.355       .  A
C317        C617   1.438       .  S
C319        N320   1.358       .  A
C319        N324   1.358       .  A
C319        C604   1.436       .  S
N320        C321   1.357       .  A
C321        N322   1.358       .  A
C321        C612   1.439       .  S
N322        C323   1.358       .  A
C323        N324   1.357       .  A
C323        C608   1.438       .  S
C325        N326   1.357       .  A
C325        N330   1.361       .  A
C325        C589   1.439       .  S
N326        C327   1.356       .  A
C327        N328   1.358       .  A
C327        C593   1.437       .  S
N328        C329   1.358       .  A
C329        N330   1.360       .  A
C329        C597   1.442       .  S
C331        N332   1.355       .  A
C331        N336   1.360       .  A
C331        C577   1.434       .  S
N332        C333   1.354       .  A
C333        N334   1.357       .  A
C333        C584   1.435       .  S
N334        C335   1.358       .  A
C335        N336   1.360       .  A
C335        C588   1.440       .  S
C337        N338   1.361       .  A
C337        N342   1.355       .  A
C337        C565   1.436       .  S
N338        C339   1.360       .  A
C339        N340   1.358       .  A
C339        C573   1.440       .  S
N340        C341   1.357       .  A
C341        N342   1.354       .  A
C341        C569   1.433       .  S
C343        N344   1.359       .  A
C343        N348   1.357       .  A
C343        C556   1.436       .  S
N344        C345   1.358       .  A
C345        N346   1.357       .  A
C345        C564   1.439       .  S
N346        C347   1.357       .  A
C347        N348   1.357       .  A
C347        C560   1.436       .  S
O349       Ni355   1.927       .  S
O349        C370   1.269       .  A
O350       Ni373   1.894       .  S
O350        C359   1.262       .  A
O351       Ni355   1.917       .  S
O351       Ni373   1.905       .  S
O351       Ni367   1.911       .  S
O351        H374   0.966       .  S
C352        C544   1.437       .  S
C352        O369   1.270       .  A
C352        O361   1.274       .  A
O353       Ni372   1.939       .  S
O353        C359   1.272       .  A
O354       Ni372   1.905       .  S
O354        C356   1.268       .  A
Ni355       O358   1.923       .  S
Ni355       O360   1.907       .  S
C356        C600   1.441       .  S
C356        O366   1.275       .  A
O357       Ni373   1.915       .  S
O357        C363   1.272       .  A
O358        C363   1.273       .  A
C359        C548   1.434       .  S
O360        C362   1.266       .  A
O361       Ni372   1.932       .  S
C362        C552   1.438       .  S
C362        O368   1.270       .  A
C363        C553   1.435   1_655  S
H364        O365   0.966       .  S
O365       Ni373   1.914       .  S
O365       Ni367   1.914       .  S
O365       Ni372   1.920       .  S
O366       Ni367   1.943       .  S
Ni367       O371   1.911       .  S
Ni367       O369   1.910       .  S
O368       Ni373   1.930       .  S
C370        C596   1.435       .  S
C370        O371   1.267       .  A
O375       Ni381   1.928       .  S
O375        C396   1.269       .  A
O376       Ni399   1.905       .  S
O376        C385   1.265       .  A
O377       Ni381   1.916       .  S
O377       Ni399   1.907       .  S
O377       Ni393   1.910       .  S
O377        H400   0.966       .  S
C378        C542   1.443       .  S
C378        O395   1.270       .  A
C378        O387   1.274       .  A
O379       Ni398   1.937       .  S
O379        C385   1.271       .  A
O380       Ni398   1.904       .  S
O380        C382   1.268       .  A
Ni381       O384   1.921       .  S
Ni381       O386   1.905       .  S
C382        C609   1.438       .  S
C382        O392   1.275       .  A
O383       Ni399   1.921       .  S
O383        C389   1.275   1_455  A
O384        C389   1.273   1_455  A
C385        C549   1.439       .  S
O386        C388   1.266       .  A
O387       Ni398   1.934       .  S
C388        C545   1.433       .  S
C388        O394   1.269       .  A
C389        C568   1.435       .  S
H390        O391   0.966       .  S
O391       Ni399   1.921       .  S
O391       Ni393   1.917       .  S
O391       Ni398   1.921       .  S
O392       Ni393   1.940       .  S
Ni393       O397   1.912       .  S
Ni393       O395   1.913       .  S
O394       Ni399   1.924       .  S
C396        O397   1.267       .  A
O401       Ni407   1.929       .  S
O401        C422   1.269       .  A
O402       Ni425   1.895       .  S
O402        C411   1.262       .  A
O403       Ni407   1.919       .  S
O403       Ni425   1.906       .  S
O403       Ni419   1.911       .  S
O403        H426   0.966       .  S
C404        C532   1.436       .  S
C404        O421   1.269       .  A
C404        O413   1.274       .  A
O405       Ni424   1.939       .  S
O405        C411   1.272       .  A
O406       Ni424   1.905       .  S
O406        C408   1.268       .  A
Ni407       O410   1.926   1_545  S
Ni407       O412   1.909       .  S
C408        C621   1.440       .  S
C408        O418   1.275       .  A
O409       Ni425   1.912   1_565  S
O409        C415   1.271       .  A
O410        C415   1.273       .  A
C411        C536   1.435   1_545  S
O412        C414   1.267       .  A
O413       Ni424   1.932       .  S
C414        C540   1.436   1_545  S
C414        O420   1.269       .  A
C415        C601   1.435       .  S
H416        O417   0.966       .  S
O417       Ni425   1.913       .  S
O417       Ni419   1.914       .  S
O417       Ni424   1.919       .  S
O418       Ni419   1.943       .  S
Ni419       O423   1.910       .  S
Ni419       O421   1.908       .  S
O420       Ni425   1.925       .  S
C422        C620   1.436       .  S
C422        O423   1.267       .  A
O427       Ni433   1.926       .  S
O427        C448   1.270       .  A
O428       Ni451   1.901       .  S
O428        C437   1.265       .  A
O429       Ni433   1.908       .  S
O429       Ni451   1.900       .  S
O429       Ni445   1.915       .  S
O429        H452   0.966       .  S
C430        C529   1.444       .  S
C430        O447   1.275       .  A
C430        O439   1.274       .  A
O431       Ni450   1.937       .  S
O431        C437   1.272       .  A
O432       Ni450   1.905       .  S
O432        C434   1.268       .  A
Ni433       O436   1.922       .  S
Ni433       O438   1.909       .  S
C434        C585   1.438       .  S
C434        O444   1.274       .  A
O435       Ni451   1.927       .  S
O435        C441   1.276       .  A
O436        C441   1.275       .  A
C437        C537   1.436       .  S
O438        C440   1.267       .  A
O439       Ni450   1.931       .  S
C440        C533   1.434       .  S
C440        O446   1.269       .  A
C441        C592   1.438       .  S
H442        O443   0.966       .  S
O443       Ni451   1.917       .  S
O443       Ni445   1.912       .  S
O443       Ni450   1.912       .  S
O444       Ni445   1.939       .  S
Ni445       O449   1.911       .  S
Ni445       O447   1.923       .  S
O446       Ni451   1.924       .  S
C448        O449   1.268       .  A
C453        N454   1.357       .  A
C453        N458   1.358       .  A
C453        C531   1.436       .  S
N454        C455   1.357       .  A
C455        N456   1.358       .  A
C455        C543   1.438       .  S
N456        C457   1.359       .  A
C457        N458   1.358       .  A
C457        C528   1.439       .  S
C459        N460   1.360       .  A
C459        N464   1.359       .  A
C459        C530   1.445       .  S
N460        C461   1.360       .  A
C461        N462   1.359       .  A
C461        C541   1.443       .  S
N462        C463   1.359       .  A
C463        N464   1.360       .  A
C463        C525   1.443       .  S
O465       Ni471   1.933       .  S
O465        C486   1.270       .  A
O466       Ni489   1.910       .  S
O466        C475   1.268       .  A
O467       Ni471   1.923       .  S
O467       Ni489   1.920       .  S
O467       Ni483   1.923       .  S
O467        H490   0.966       .  S
C468        C616   1.437       .  S
C468        O485   1.272       .  A
C468        O477   1.274       .  A
O469       Ni488   1.932       .  S
O469        C475   1.271       .  A
O470       Ni488   1.908       .  S
O470        C472   1.267       .  A
Ni471       O474   1.929       .  S
Ni471       O476   1.901       .  S
C472        C520   1.434       .  S
C472        O482   1.269       .  A
O473       Ni489   1.916       .  S
O473        C479   1.270       .  A
O474        C479   1.271       .  A
C475        C561   1.438       .  S
O476        C478   1.269       .  A
O477       Ni488   1.928       .  S
C478        C557   1.434       .  S
C478        O484   1.276       .  A
C479        C526   1.441       .  S
H480        O481   0.966       .  S
O481       Ni489   1.910       .  S
O481       Ni483   1.902       .  S
O481       Ni488   1.918       .  S
O482       Ni483   1.923       .  S
Ni483       O487   1.897       .  S
Ni483       O485   1.914       .  S
O484       Ni489   1.943       .  S
C486        C521   1.434       .  S
C486        O487   1.263       .  A
O491       Ni497   1.926       .  S
O491        C512   1.268       .  A
O492       Ni515   1.899       .  S
O492        C501   1.264       .  A
O493       Ni497   1.913       .  S
O493       Ni515   1.902       .  S
O493       Ni509   1.906       .  S
O493        H516   0.966       .  S
C494        C527   1.438       .  S
C494        O511   1.270       .  A
C494        O503   1.274       .  A
O495       Ni514   1.937       .  S
O495        C501   1.271       .  A
O496       Ni514   1.904       .  S
O496        C498   1.268       .  A
Ni497       O500   1.919       .  S
Ni497       O502   1.905       .  S
C498        C576   1.438       .  S
C498        O508   1.274       .  A
O499       Ni515   1.920       .  S
O499        C505   1.275       .  A
O500        C505   1.273       .  A
C501        C524   1.434       .  S
O502        C504   1.266       .  A
O503       Ni514   1.930       .  S
C504        C517   1.433       .  S
C504        O510   1.269       .  A
C505        C580   1.433       .  S
H506        O507   0.966       .  S
O507       Ni515   1.919       .  S
O507       Ni509   1.914       .  S
O507       Ni514   1.917       .  S
O508       Ni509   1.937       .  S
Ni509       O513   1.906       .  S
Ni509       O511   1.912       .  S
O510       Ni515   1.924       .  S
C512        C572   1.431       .  S
C512        O513   1.266       .  A
C517        C518   1.205       .  T
C518        C519   1.410       .  S
C519        C520   1.205       .  T
C522        C523   1.411       .  S
C523        C524   1.205       .  T
C525        C526   1.210       .  T
C527        C528   1.208       .  T
C529        C530   1.211       .  T
C531        C532   1.206       .  T
C533        C534   1.205       .  T
C535        C536   1.205       .  T
C537        C538   1.206       .  T
C538        C539   1.413       .  S
C539        C540   1.206       .  T
C541        C542   1.210       .  T
C543        C544   1.207       .  T
C546        C547   1.410   1_554  S
C547        C548   1.205       .  T
C549        C550   1.208   1_455  T
C550        C551   1.416       .  S
C551        C552   1.208       .  T
C553        C554   1.206       .  T
C554        C555   1.412       .  S
C555        C556   1.206       .  T
C558        C559   1.412       .  S
C559        C560   1.206       .  T
C561        C562   1.208       .  T
C562        C563   1.415       .  S
C563        C564   1.208       .  T
C565        C566   1.206       .  T
C566        C567   1.413       .  S
C567        C568   1.206       .  T
C569        C570   1.204       .  T
C570        C571   1.409       .  S
C571        C572   1.204       .  T
C574        C575   1.416       .  S
C575        C576   1.208       .  T
C577        C578   1.205       .  T
C578        C579   1.410       .  S
C579        C580   1.204       .  T
C581        C582   1.205       .  T
C582        C583   1.411       .  S
C583        C584   1.205       .  T
C585        C586   1.208       .  T
C586        C587   1.415       .  S
C587        C588   1.208       .  T
C589        C590   1.208       .  T
C590        C591   1.415       .  S
C591        C592   1.208   1_545  T
C593        C594   1.206       .  T
C594        C595   1.413       .  S
C595        C596   1.206       .  T
C598        C599   1.418       .  S
C599        C600   1.210       .  T
C601        C602   1.206       .  T
C602        C603   1.412       .  S
C603        C604   1.206       .  T
C605        C606   1.207   1_554  T
C606        C607   1.414       .  S
C607        C608   1.207       .  T
C609        C610   1.207       .  T
C610        C611   1.415       .  S
C611        C612   1.208       .  T
C613        C614   1.207       .  T
C614        C615   1.414       .  S
C615        C616   1.207       .  T
C617        C618   1.207       .  T
C618        C619   1.414       .  S
C619        C620   1.207       .  T
C621        C622   1.209       .  T
C623        C624   1.209       .  T
