geometry optimzed in LAMMPS
_audit_creation_date              2020-11-30 
_audit_creation_method            'lammps2cif' 
_symmetry_space_group_name_H-M    'P1' 
_symmetry_Int_Tables_number       1 
_symmetry_cell_setting            triclinic 
loop_ 
_symmetry_equiv_pos_as_xyz 
  x,y,z 
_cell_length_a                    37.02657858 
_cell_length_b                    40.14017353386964 
_cell_length_c                    24.293700535624023 
_cell_angle_alpha                 89.74799907057532 
_cell_angle_beta                  89.9094963022581 
_cell_angle_gamma                 89.28774145591981 
loop_ 
_atom_site_label 
_atom_site_type_symbol 
_atom_site_fract_x 
_atom_site_fract_y 
_atom_site_fract_z 
_atom_site_charge 
N1          N  0.12284324  0.29233922  0.38200853    -0.01800
C2          C  0.13363304  0.28649767  0.32927330     0.00800
C3          C  0.10503472  0.28976879  0.29302127    -0.22100
C4          C  0.07491666  0.29447571  0.32432601    -0.22300
C5          C  0.08610831  0.29343094  0.37846744     0.00700
H6          H  0.10514187  0.28421757  0.24945797     0.14500
H7          H  0.04746296  0.29204659  0.30962947     0.14500
N8          N  0.36987091  0.15478667  0.11093672    -0.01800
C9          C  0.35655329  0.15856997  0.16322319     0.00800
C10         C  0.38358625  0.15889050  0.20204815    -0.22100
C11         C  0.41517711  0.15805856  0.17397274    -0.22300
C12         C  0.40631278  0.15765323  0.11863151     0.00700
H13         H  0.38062230  0.16418586  0.24552627     0.14500
H14         H  0.44152531  0.16215855  0.19184524     0.14500
O15         O  0.21475230  0.26479322  0.15034282    -0.76800
C16         C  0.17833281  0.16842076  0.17181627     0.84300
O17         O  0.18896279  0.25582056  0.34793592    -0.77900
O18         O  0.25006797  0.14820601  0.30962124    -0.79400
O19         O  0.32312325  0.20722114  0.18347693    -0.79200
O20         O  0.27277227  0.27710810  0.16295076    -0.77800
Zn21       Zn  0.20196372  0.23517790  0.21247804     1.55700
O22         O  0.29622885  0.15820470  0.19467166    -0.79200
Cd23       Cd  0.28859548  0.24201489  0.22039931     1.59700
Cd24       Cd  0.23747943  0.22920580  0.33104492     1.59600
O25         O  0.31675842  0.26654146  0.28319932    -0.79200
O26         O  0.24432029  0.21973221  0.25009777    -1.89700
Cd27       Cd  0.24879888  0.17132208  0.23506345     1.59900
O28         O  0.27878923  0.25986779  0.35375107    -0.79200
O29         O  0.20675353  0.15351811  0.18860228    -0.77800
C30         C  0.16666242  0.26779686  0.31273499     0.84700
C31         C  0.24251470  0.28172625  0.13899887     0.84400
O32         O  0.17204511  0.19893224  0.18170125    -0.76800
C33         C  0.32261124  0.17558250  0.17806552     0.85200
O34         O  0.17040670  0.26203682  0.26165088    -0.76900
C35         C  0.30789332  0.27141795  0.33338408     0.85300
C36         C  0.24847780  0.15508086  0.36077234     0.85600
O37         O  0.24348330  0.18487097  0.37798461    -0.79300
C38         C  0.18077492  0.34105126  0.98176851     0.04800
C39         C  0.17866071  0.37185170  0.45525006    -0.11300
C40         C  0.15150537  0.37926887  0.41711011     0.02300
C41         C  0.13260091  0.35288295  0.39389819    -0.09800
C42         C  0.13997083  0.31951368  0.41082363     0.04800
C43         C  0.16258189  0.31390183  0.45720900    -0.09300
H44         H  0.19535222  0.39197673  0.96925831     0.10400
H45         H  0.11227951  0.35816274  0.36296294     0.08000
H46         H  0.16507568  0.28901614  0.97411082     0.07800
C47         C  0.22529068  0.37048900  0.11504095     0.04800
C48         C  0.20325091  0.36954115  0.06829778    -0.11300
C49         C  0.20045872  0.34001079  0.03601035     0.02300
C50         C  0.21624053  0.31055700  0.05691865    -0.09800
C51         C  0.23683720  0.31143215  0.10552692     0.04800
C52         C  0.24314433  0.34164497  0.13192467    -0.09300
H53         H  0.18852347  0.39208148  0.05751326     0.10400
H54         H  0.21207543  0.28696154  0.03665992     0.08000
H55         H  0.25872793  0.34204611  0.16973194     0.07800
N56         N  0.13974046  0.41371447  0.41251736    -0.01800
C57         C  0.16650921  0.43611860  0.40361849     0.00800
C58         C  0.17155656  0.45672949  0.44808943    -0.22100
C59         C  0.14514564  0.44899296  0.48447108    -0.22300
C60         C  0.12379011  0.42569813  0.45927998     0.00700
H61         H  0.19165029  0.47587762  0.45271854     0.14500
H62         H  0.13927179  0.46178482  0.52232231     0.14500
N63         N  0.36382331  0.03461300  0.11058805    -0.01800
C64         C  0.34852236  0.03170701  0.16106877     0.00800
C65         C  0.37422414  0.52637614  0.20132631    -0.22100
C66         C  0.40656698  0.52284958  0.17467636    -0.22300
C67         C  0.39921980  0.02704745  0.11948989     0.00700
H68         H  0.36924108  0.52074435  0.24428004     0.14500
H69         H  0.43175833  0.51437227  0.19279169     0.14500
O70         O  0.16897657  0.48425034  0.19120647    -0.76800
C71         C  0.22986689  0.40092163  0.14793187     0.84300
O72         O  0.22413236  0.44190121  0.36669659    -0.77900
O73         O  0.32480525  0.43392798  0.23362805    -0.79400
O74         O  0.29295601  0.03276431  0.20798121    -0.79200
O75         O  0.20207011  0.03023207  0.18304396    -0.77800
Zn76       Zn  0.19995472  0.45043030  0.23313101     1.55700
O77         O  0.30283787  0.49243842  0.14710635    -0.79200
Cd78       Cd  0.24334212  0.01825163  0.23691485     1.59700
Cd79       Cd  0.26502804  0.46346996  0.32332442     1.59600
O80         O  0.23744572  0.04152347  0.31147241    -0.79200
O81         O  0.24627148  0.46981083  0.24699493    -1.89700
Cd82       Cd  0.28113265  0.45328402  0.19196671     1.59900
O83         O  0.27262603  0.00942360  0.36391998    -0.79200
O84         O  0.25970126  0.41622054  0.14379347    -0.77800
C85         C  0.19078342  0.43747658  0.35618955     0.84700
C86         C  0.17411687  0.01340330  0.17166522     0.84400
O87         O  0.20533138  0.40986554  0.18216790    -0.76800
C88         C  0.31198320  0.01949717  0.17020760     0.85200
O89         O  0.17759803  0.43933078  0.30762582    -0.76900
C90         C  0.25612157  0.03708923  0.35506870     0.85300
C91         C  0.33462206  0.42992790  0.28350972     0.85600
O92         O  0.31395765  0.43682302  0.32413330    -0.79300
C93         C  0.25382483  0.12633533  0.39853577     0.04800
C94         C  0.27779446  0.12698558  0.44344281    -0.11300
C95         C  0.29315497  0.09690760  0.46493075     0.02300
C96         C  0.28526171  0.06674942  0.43636226    -0.09800
C97         C  0.26011706  0.06611778  0.39291027     0.04800
C98         C  0.24238082  0.09572160  0.37854182    -0.09300
H99         H  0.28563748  0.15103640  0.45855757     0.10400
H100        H  0.29969026  0.04386671  0.44523788     0.08000
H101        H  0.22302381  0.09576163  0.34507724     0.07800
C102        C  0.31925403  0.09683070  0.51350024     0.04800
C103        C  0.32975056  0.06606186  0.03866825    -0.11300
C104        C  0.35529484  0.06488265  0.08094896     0.02300
C105        C  0.36931682  0.09453385  0.10076765    -0.09800
C106        C  0.35788904  0.12561539  0.08116745     0.04800
C107        C  0.33326533  0.12685845  0.03677959    -0.09300
H108        H  0.31777107  0.04272426  0.52738157     0.10400
H109        H  0.38769994  0.09342294  0.13539186     0.08000
H110        H  0.32538930  0.15116372  0.52170972     0.07800
N111        N  0.11899860  0.15224853  0.13312868    -0.01800
C112        C  0.10944052  0.15787163  0.07946414     0.00800
C113        C  0.13906037  0.15642156  0.04473766    -0.22100
C114        C  0.16852193  0.15297803  0.07746569    -0.22300
C115        C  0.15585017  0.15251658  0.13083038     0.00700
H116        H  0.13969729  0.16212366  0.00115573     0.14500
H117        H  0.19622664  0.15635762  0.06435834     0.14500
N118        N  0.36929723  0.28899998  0.36443862    -0.01800
C119        C  0.38309238  0.28257833  0.41541347     0.00800
C120        C  0.35646650  0.28207412  0.45494499    -0.22100
C121        C  0.32460185  0.28630581  0.42790783    -0.22300
C122        C  0.33280968  0.28784614  0.37222724     0.00700
H123        H  0.35953620  0.27495811  0.49772732     0.14500
H124        H  0.29828345  0.28238509  0.44617259     0.14500
O125        O  0.02915978  0.17249684  0.39669292    -0.76800
C126        C  0.06284408  0.27475484  0.41595744     0.84300
O127        O  0.05144940  0.18409159  0.09406057    -0.77900
O128        O  0.49103400  0.28986001  0.05292544    -0.79400
O129        O  0.41766981  0.23342177  0.42974100    -0.79200
O130        O  0.47016534  0.16227825  0.40569823    -0.77800
Zn131      Zn  0.04115477  0.20538477  0.45580555     1.55700
O132        O  0.44437650  0.28235703  0.44187032    -0.79200
Cd133      Cd  0.45335930  0.19775679  0.46326297     1.59700
Cd134      Cd  0.50382262  0.21014745  0.07396389     1.59600
O135        O  0.42399559  0.17477548  0.02728334    -0.79200
O136        O  0.99783587  0.21983693  0.49259524    -1.89700
Cd137      Cd  0.99260755  0.26837325  0.47846782     1.59900
O138        O  0.46173944  0.18153458  0.09769220    -0.79200
O139        O  0.03431909  0.28869882  0.43419664    -0.77800
C140        C  0.07586767  0.17463154  0.06041534     0.84700
C141        C  0.00108393  0.15619863  0.38401910     0.84400
O142        O  0.06916518  0.24372765  0.42272806    -0.76800
C143        C  0.41755018  0.26524997  0.42679522     0.85200
O144        O  0.07356685  0.18134244  0.00920546    -0.76900
C145        C  0.43213521  0.17112168  0.07803535     0.85300
C146        C  0.49248840  0.28282027  0.10395662     0.85600
O147        O  0.49792227  0.25320619  0.12136278    -0.79300
C148        C  0.01014456  0.06577461  0.35730836     0.04800
C149        C  0.99471425  0.09625655  0.37316559    -0.11300
C150        C  0.00627687  0.12609623  0.35024218     0.02300
C151        C  0.02997100  0.12557554  0.30500592    -0.09800
C152        C  0.04350275  0.09512569  0.28319660     0.04800
C153        C  0.03410954  0.06527854  0.31203771    -0.09300
H154        H  0.97711367  0.09737934  0.40884713     0.10400
H155        H  0.03820950  0.14932815  0.28889850     0.08000
H156        H  0.04633236  0.04160161  0.30198662     0.07800
C157        C  0.06861972  0.09462894  0.23319350     0.04800
C158        C  0.08154262  0.12461526  0.20743683    -0.11300
C159        C  0.10410300  0.12321841  0.16051652     0.02300
C160        C  0.11461350  0.09213110  0.14070618    -0.09800
C161        C  0.10333927  0.06255534  0.16477863     0.04800
C162        C  0.07967016  0.06368261  0.20957342    -0.09300
H163        H  0.07472849  0.14903276  0.22266876     0.10400
H164        H  0.13188944  0.09084743  0.10470433     0.08000
H165        H  0.06988035  0.04008154  0.22412517     0.07800
N166        N  0.11344505  0.03195635  0.13790002    -0.01800
C167        C  0.09858720  0.02774585  0.08761970     0.00800
C168        C  0.12445760  0.52317404  0.04746343    -0.22100
C169        C  0.15685869  0.52129498  0.07429408    -0.22300
C170        C  0.14921994  0.02584157  0.12935409     0.00700
H171        H  0.11978956  0.51754115  0.00454810     0.14500
H172        H  0.18247545  0.51370498  0.05650710     0.14500
N173        N  0.38951955  0.41103551  0.33769603    -0.01800
C174        C  0.41775225  0.43201510  0.34636824     0.00800
C175        C  0.42277475  0.45400955  0.30343653    -0.22100
C176        C  0.39515878  0.44891314  0.26832639    -0.22300
C177        C  0.37353447  0.42523845  0.29248001     0.00700
H178        H  0.44302372  0.47314325  0.29999079     0.14500
H179        H  0.38867858  0.46402750  0.23286802     0.14500
O180        O  0.45309135  0.41063633  0.06973333    -0.76800
C181        C  0.42394753  0.01404478  0.07751465     0.84300
O182        O  0.47458669  0.43804112  0.38515030    -0.77900
O183        O  0.98710168  0.04123179  0.43885711    -0.79400
O184        O  0.05047544  0.49133075  0.10367394    -0.79200
O185        O  0.00810426  0.41544271  0.10634226    -0.77800
Zn186      Zn  0.44842973  0.45051456  0.01698138     1.55700
O187        O  0.04352479  0.03064501  0.03991322    -0.79200
Cd188      Cd  0.02992940  0.45236660  0.05833460     1.59700
Cd189      Cd  0.01430201  0.46227710  0.42709443     1.59600
O190        O  0.07446778  0.43356319  0.51789194    -0.79200
O191        O  0.49523964  0.46896090  0.50297388    -1.89700
Cd192      Cd  0.49331281  0.01735633  0.01277084     1.59900
O193        O  0.06423466  0.43721908  0.42734479    -0.79200
O194        O  0.45284272  0.02982565  0.06731134    -0.77800
C195        C  0.44102506  0.43389036  0.39482712     0.84700
C196        C  0.47776904  0.40097959  0.10317844     0.84400
O197        O  0.41762332  0.48540372  0.05710061    -0.76800
C198        C  0.06151621  0.01724007  0.07874138     0.85200
O199        O  0.42691534  0.43764007  0.44257444    -0.76900
C200        C  0.08475325  0.43022592  0.46809114     0.85300
C201        C  0.00526200  0.03654924  0.39488325     0.85600
O202        O  0.02072311  0.00844968  0.38546893    -0.79300
C203        C  0.42653840  0.33789929  0.26395048     0.04800
C204        C  0.40743074  0.31096761  0.28753931    -0.11300
C205        C  0.38473203  0.31651709  0.33384772     0.02300
C206        C  0.37850195  0.34981345  0.35208761    -0.09800
C207        C  0.39883849  0.37606958  0.33030844     0.04800
C208        C  0.42543030  0.36838899  0.29139260    -0.09300
H209        H  0.40973923  0.28622328  0.27032203     0.10400
H210        H  0.35869272  0.35496744  0.38385000     0.08000
H211        H  0.44289059  0.38818828  0.27785906     0.07800
C212        C  0.48552570  0.31094254  0.14118748     0.04800
C213        C  0.46375053  0.30833856  0.18879448    -0.11300
C214        C  0.44660644  0.33723142  0.21002675     0.05500
C215        C  0.44892971  0.36731657  0.17879239    -0.09800
C216        C  0.47314707  0.37011222  0.13506881     0.04800
C217        C  0.49305035  0.34242427  0.11924301    -0.09300
H218        H  0.45921539  0.28421161  0.20742192     0.10400
H219        H  0.43279462  0.38908231  0.18918861     0.08000
H220        H  0.01113034  0.34470949  0.08421546     0.07800
N221        N  0.12284334  0.29233909  0.88200770    -0.01800
C222        C  0.13363310  0.28649764  0.82927237     0.00800
C223        C  0.10503469  0.28976854  0.79302063    -0.22100
C224        C  0.07491668  0.29447523  0.82432534    -0.22300
C225        C  0.08610839  0.29343065  0.87846673     0.00700
H226        H  0.10514184  0.28421720  0.74945628     0.14500
H227        H  0.04746280  0.29204592  0.80962885     0.14500
N228        N  0.36987106  0.15478672  0.61093705    -0.01800
C229        C  0.35655354  0.15857004  0.66322358     0.00800
C230        C  0.38358659  0.15889052  0.70204845    -0.22100
C231        C  0.41517744  0.15805855  0.67397296    -0.22300
C232        C  0.40631297  0.15765322  0.61863177     0.00700
H233        H  0.38062279  0.16418594  0.74552671     0.14500
H234        H  0.44152546  0.16215851  0.69184511     0.14500
O235        O  0.21475329  0.26479354  0.65034199    -0.76800
C236        C  0.17833311  0.16842096  0.67181591     0.84300
O237        O  0.18896292  0.25582078  0.84793500    -0.77900
O238        O  0.25006804  0.14820621  0.80962100    -0.79400
O239        O  0.32312361  0.20722134  0.68347711    -0.79200
O240        O  0.27277316  0.27710851  0.66295058    -0.77800
Zn241      Zn  0.20196433  0.23517820  0.71247698     1.55700
O242        O  0.29622900  0.15820496  0.69467177    -0.79200
Cd243      Cd  0.28859586  0.24201516  0.72039932     1.59700
Cd244      Cd  0.23747976  0.22920624  0.83104458     1.59600
O245        O  0.31675873  0.26654173  0.78319958    -0.79200
O246        O  0.24432061  0.21973250  0.75009745    -1.89700
Cd247      Cd  0.24879898  0.17132232  0.73506344     1.59900
O248        O  0.27878942  0.25986833  0.85375123    -0.79200
O249        O  0.20675355  0.15351818  0.68860268    -0.77800
C250        C  0.16666265  0.26779713  0.81273398     0.84700
C251        C  0.24251571  0.28172666  0.63899839     0.84400
O252        O  0.17204576  0.19893261  0.68170001    -0.76800
C253        C  0.32261153  0.17558269  0.67806587     0.85200
O254        O  0.17040710  0.26203727  0.76164979    -0.76900
C255        C  0.30789359  0.27141837  0.83338430     0.85300
C256        C  0.24847796  0.15508109  0.86077207     0.85600
O257        O  0.24348362  0.18487126  0.87798425    -0.79300
C258        C  0.18077536  0.34105151  0.48176835     0.04800
C259        C  0.17866053  0.37185148  0.95525030    -0.11300
C260        C  0.15150546  0.37926869  0.91710987     0.02300
C261        C  0.13260112  0.35288281  0.89389755    -0.09800
C262        C  0.13997088  0.31951351  0.91082301     0.04800
C263        C  0.16258159  0.31390160  0.95720882    -0.09300
H264        H  0.19535262  0.39197722  0.46925804     0.10400
H265        H  0.11227992  0.35816265  0.86296201     0.08000
H266        H  0.16507618  0.28901624  0.47411108     0.07800
C267        C  0.22529111  0.37048929  0.61504066     0.04800
C268        C  0.20325149  0.36954130  0.56829752    -0.11300
C269        C  0.20045942  0.34001106  0.53600993     0.02300
C270        C  0.21624167  0.31055747  0.55691811    -0.09800
C271        C  0.23683826  0.31143255  0.60552633     0.04800
C272        C  0.24314517  0.34164539  0.63192435    -0.09300
H273        H  0.18852351  0.39208213  0.55751272     0.10400
H274        H  0.21207660  0.28696137  0.53665866     0.08000
H275        H  0.25872846  0.34204659  0.66973100     0.07800
N276        N  0.13974072  0.41371434  0.91251708    -0.01800
C277        C  0.16650964  0.43611832  0.90361836     0.00800
C278        C  0.17155692  0.45672930  0.94808919    -0.22100
C279        C  0.14514584  0.44899298  0.98447075    -0.22300
C280        C  0.12379035  0.42569810  0.95927964     0.00700
H281        H  0.19165063  0.47587740  0.95271832     0.14500
H282        H  0.13927194  0.46178484  0.02232142     0.14500
N283        N  0.36382321  0.03461316  0.61058810    -0.01800
C284        C  0.34852214  0.03170721  0.66106871     0.00800
C285        C  0.37422383  0.52637608  0.70132624    -0.22100
C286        C  0.40656666  0.52284938  0.67467639    -0.22300
C287        C  0.39921966  0.02704747  0.61948993     0.00700
H288        H  0.36924063  0.52074420  0.74428027     0.14500
H289        H  0.43175806  0.51437186  0.69279184     0.14500
O290        O  0.16897631  0.48425051  0.69120658    -0.76800
C291        C  0.22986711  0.40092190  0.64793159     0.84300
O292        O  0.22413267  0.44190119  0.86669617    -0.77900
O293        O  0.32480562  0.43392872  0.73362753    -0.79400
O294        O  0.29295581  0.03276474  0.70798115    -0.79200
O295        O  0.20206988  0.03023229  0.68304365    -0.77800
Zn296      Zn  0.19995477  0.45043052  0.73313095     1.55700
O297        O  0.30283734  0.49243893  0.64710565    -0.79200
Cd298      Cd  0.24334192  0.01825190  0.73691455     1.59700
Cd299      Cd  0.26502813  0.46347019  0.82332374     1.59600
O300        O  0.23744525  0.04152349  0.81147242    -0.79200
O301        O  0.24627149  0.46981118  0.74699451    -1.89700
Cd302      Cd  0.28113272  0.45328447  0.69196633     1.59900
O303        O  0.27262610  0.00942375  0.86391933    -0.79200
O304        O  0.25970143  0.41622087  0.64379322    -0.77800
C305        C  0.19078373  0.43747643  0.85618932     0.84700
C306        C  0.17411660  0.01340351  0.67166518     0.84400
O307        O  0.20533152  0.40986579  0.68216755    -0.76800
C308        C  0.31198286  0.01949771  0.67020727     0.85200
O309        O  0.17759821  0.43933074  0.80762571    -0.76900
C310        C  0.25612139  0.03708929  0.85506848     0.85300
C311        C  0.33462236  0.42992845  0.78350919     0.85600
O312        O  0.31395778  0.43682327  0.82413270    -0.79300
C313        C  0.25382496  0.12633548  0.89853552     0.04800
C314        C  0.27779458  0.12698555  0.94344257    -0.11300
C315        C  0.29315501  0.09690760  0.96493051     0.02300
C316        C  0.28526179  0.06674927  0.93636205    -0.09800
C317        C  0.26011696  0.06611786  0.89291007     0.04800
C318        C  0.24238085  0.09572173  0.87854168    -0.09300
H319        H  0.28563777  0.15103670  0.95855762     0.10400
H320        H  0.29968970  0.04386745  0.94523715     0.08000
H321        H  0.22302369  0.09576183  0.84507695     0.07800
C322        C  0.31925408  0.09683062  0.01350000     0.04800
C323        C  0.32975049  0.06606191  0.53866845    -0.11300
C324        C  0.35529488  0.06488278  0.58094901     0.02300
C325        C  0.36931688  0.09453394  0.60076771    -0.09800
C326        C  0.35788906  0.12561548  0.58116774     0.04800
C327        C  0.33326526  0.12685856  0.53677982    -0.09300
H328        H  0.31777106  0.04272399  0.02738114     0.10400
H329        H  0.38770013  0.09342300  0.63539199     0.08000
H330        H  0.32538926  0.15116390  0.02170937     0.07800
N331        N  0.11899882  0.15224866  0.63312865    -0.01800
C332        C  0.10944069  0.15787179  0.57946415     0.00800
C333        C  0.13906044  0.15642159  0.54473734    -0.22100
C334        C  0.16852210  0.15297799  0.57746547    -0.22300
C335        C  0.15585038  0.15251660  0.63083026     0.00700
H336        H  0.13969729  0.16212340  0.50115665     0.14500
H337        H  0.19622638  0.15635742  0.56435808     0.14500
N338        N  0.36929746  0.28900057  0.86443917    -0.01800
C339        C  0.38309260  0.28257900  0.91541401     0.00800
C340        C  0.35646668  0.28207465  0.95494559    -0.22100
C341        C  0.32460208  0.28630611  0.92790812    -0.22300
C342        C  0.33280990  0.28784658  0.87222761     0.00700
H343        H  0.35953631  0.27495881  0.99772724     0.14500
H344        H  0.29828346  0.28238524  0.94617296     0.14500
O345        O  0.02915953  0.17249685  0.89669307    -0.76800
C346        C  0.06284424  0.27475470  0.91595709     0.84300
O347        O  0.05144960  0.18409190  0.59406053    -0.77900
O348        O  0.49103280  0.28985990  0.55292502    -0.79400
O349        O  0.41767002  0.23342236  0.92974068    -0.79200
O350        O  0.47016501  0.16227855  0.90569798    -0.77800
Zn351      Zn  0.04115464  0.20538477  0.95580558     1.55700
O352        O  0.44437665  0.28235755  0.94187132    -0.79200
Cd353      Cd  0.45335916  0.19775724  0.96326295     1.59700
Cd354      Cd  0.50382250  0.21014767  0.57396394     1.59600
O355        O  0.42399588  0.17477502  0.52728346    -0.79200
O356        O  0.99783588  0.21983711  0.99259532    -1.89700
Cd357      Cd  0.99260789  0.26837349  0.97846823     1.59900
O358        O  0.46173949  0.18153481  0.59769239    -0.79200
O359        O  0.03431943  0.28869882  0.93419664    -0.77800
C360        C  0.07586783  0.17463171  0.56041530     0.84700
C361        C  0.00108365  0.15619875  0.88401906     0.84400
O362        O  0.06916520  0.24372748  0.92272771    -0.76800
C363        C  0.41755037  0.26525058  0.92679567     0.85200
O364        O  0.07356698  0.18134245  0.50920538    -0.76900
C365        C  0.43213538  0.17112161  0.57803555     0.85300
C366        C  0.49248739  0.28282042  0.60395628     0.85600
O367        O  0.49792180  0.25320649  0.62136274    -0.79300
C368        C  0.01014469  0.06577475  0.85730840     0.04800
C369        C  0.99471407  0.09625662  0.87316534    -0.11300
C370        C  0.00627668  0.12609635  0.85024214     0.02300
C371        C  0.02997102  0.12557578  0.80500601    -0.09800
C372        C  0.04350299  0.09512592  0.78319690     0.04800
C373        C  0.03410989  0.06527881  0.81203805    -0.09300
H374        H  0.97711319  0.09737935  0.90884691     0.10400
H375        H  0.03820931  0.14932805  0.78889880     0.08000
H376        H  0.04633308  0.04160178  0.80198715     0.07800
C377        C  0.06862000  0.09462919  0.73319380     0.04800
C378        C  0.08154295  0.12461551  0.70743713    -0.11300
C379        C  0.10410312  0.12321858  0.66051648     0.02300
C380        C  0.11461328  0.09213126  0.64070587    -0.09800
C381        C  0.10333908  0.06255553  0.66477844     0.04800
C382        C  0.07967023  0.06368285  0.70957354    -0.09300
H383        H  0.07472912  0.14903282  0.72266912     0.10400
H384        H  0.13188908  0.09084753  0.60470373     0.08000
H385        H  0.06988039  0.04008182  0.72412534     0.07800
N386        N  0.11344474  0.03195651  0.63789984    -0.01800
C387        C  0.09858689  0.02774600  0.58761951     0.00800
C388        C  0.12445733  0.52317386  0.54746341    -0.22100
C389        C  0.15685831  0.52129498  0.57429404    -0.22300
C390        C  0.14921965  0.02584164  0.62935396     0.00700
H391        H  0.11978921  0.51754078  0.50454763     0.14500
H392        H  0.18247573  0.51370476  0.55650666     0.14500
N393        N  0.38951968  0.41103619  0.83769602    -0.01800
C394        C  0.41775231  0.43201583  0.84636836     0.00800
C395        C  0.42277513  0.45401030  0.80343657    -0.22100
C396        C  0.39515925  0.44891358  0.76832603    -0.22300
C397        C  0.37353480  0.42523900  0.79247971     0.00700
H398        H  0.44302344  0.47314327  0.79999096     0.14500
H399        H  0.38867943  0.46402758  0.73286762     0.14500
O400        O  0.45309088  0.41063676  0.56973315    -0.76800
C401        C  0.42394734  0.01404480  0.57751456     0.84300
O402        O  0.47458687  0.43804137  0.88515036    -0.77900
O403        O  0.98710203  0.04123195  0.93885723    -0.79400
O404        O  0.05047471  0.49133122  0.60367400    -0.79200
O405        O  0.00810371  0.41544317  0.60634235    -0.77800
Zn406      Zn  0.44842932  0.45051483  0.51698103     1.55700
O407        O  0.04352466  0.03064504  0.53991251    -0.79200
Cd408      Cd  0.02992895  0.45236689  0.55833462     1.59700
Cd409      Cd  0.01430216  0.46227731  0.92709449     1.59600
O410        O  0.07446807  0.43356273  0.01789180    -0.79200
O411        O  0.49523991  0.46896079  0.00297413    -1.89700
Cd412      Cd  0.49331261  0.01735631  0.51277080     1.59900
O413        O  0.06423493  0.43721937  0.92734472    -0.79200
O414        O  0.45284272  0.02982545  0.56731160    -0.77800
C415        C  0.44102521  0.43389082  0.89482716     0.84700
C416        C  0.47776849  0.40098008  0.60317845     0.84400
O417        O  0.41762286  0.48540414  0.55709986    -0.76800
C418        C  0.06151584  0.01724034  0.57874111     0.85200
O419        O  0.42691553  0.43764033  0.94257457    -0.76900
C420        C  0.08475350  0.43022583  0.96809092     0.85300
C421        C  0.00526229  0.03654939  0.89488333     0.85600
O422        O  0.02072341  0.00844983  0.88546905    -0.79300
C423        C  0.42653892  0.33789982  0.76395149     0.04800
C424        C  0.40743110  0.31096814  0.78754008    -0.11300
C425        C  0.38473227  0.31651769  0.83384824     0.02300
C426        C  0.37850176  0.34981412  0.85208815    -0.09800
C427        C  0.39883867  0.37607020  0.83030889     0.04800
C428        C  0.42543083  0.36838948  0.79139381    -0.09300
H429        H  0.40973948  0.28622415  0.77032289     0.10400
H430        H  0.35869342  0.35496780  0.88384839     0.08000
H431        H  0.44289133  0.38818873  0.77786045     0.07800
C432        C  0.48552466  0.31094288  0.64118679     0.04800
C433        C  0.46375011  0.30833902  0.68879451    -0.11300
C434        C  0.44660664  0.33723203  0.71002748     0.05500
C435        C  0.44892998  0.36731717  0.67879329    -0.09800
C436        C  0.47314654  0.37011270  0.63506874     0.04800
C437        C  0.49304907  0.34242453  0.61924191    -0.09300
H438        H  0.45921503  0.28421223  0.70742193     0.10400
H439        H  0.43279498  0.38908353  0.68919042     0.08000
H440        H  0.01112866  0.34470973  0.58421340     0.07800
N441        N  0.12284324  0.79233920  0.38200857    -0.01800
C442        C  0.13363301  0.78649763  0.32927332     0.00800
C443        C  0.10503472  0.78976882  0.29302127    -0.22100
C444        C  0.07491666  0.79447564  0.32432603    -0.22300
C445        C  0.08610830  0.79343090  0.37846746     0.00700
H446        H  0.10514190  0.78421769  0.24945790     0.14500
H447        H  0.04746297  0.79204646  0.30962949     0.14500
N448        N  0.36987092  0.65478661  0.11093672    -0.01800
C449        C  0.35655329  0.65856996  0.16322318     0.00800
C450        C  0.38358625  0.65889057  0.20204814    -0.22100
C451        C  0.41517712  0.65805861  0.17397274    -0.22300
C452        C  0.40631279  0.65765320  0.11863151     0.00700
H453        H  0.38062230  0.66418596  0.24552622     0.14500
H454        H  0.44152521  0.66215859  0.19184516     0.14500
O455        O  0.21475234  0.76479312  0.15034278    -0.76800
C456        C  0.17833281  0.66842062  0.17181629     0.84300
O457        O  0.18896281  0.75582064  0.34793591    -0.77900
O458        O  0.25006798  0.64820603  0.30962121    -0.79400
O459        O  0.32312325  0.70722112  0.18347691    -0.79200
O460        O  0.27277227  0.77710812  0.16295084    -0.77800
Zn461      Zn  0.20196372  0.73517778  0.21247805     1.55700
O462        O  0.29622885  0.65820468  0.19467167    -0.79200
Cd463      Cd  0.28859547  0.74201481  0.22039931     1.59700
Cd464      Cd  0.23747942  0.72920584  0.33104493     1.59600
O465        O  0.31675838  0.76654153  0.28319927    -0.79200
O466        O  0.24432029  0.71973216  0.25009779    -1.89700
Cd467      Cd  0.24879888  0.67132211  0.23506343     1.59900
O468        O  0.27878927  0.75986771  0.35375106    -0.79200
O469        O  0.20675355  0.65351799  0.18860230    -0.77800
C470        C  0.16666244  0.76779691  0.31273498     0.84700
C471        C  0.24251471  0.78172623  0.13899892     0.84400
O472        O  0.17204511  0.69893209  0.18170126    -0.76800
C473        C  0.32261125  0.67558249  0.17806551     0.85200
O474        O  0.17040672  0.76203688  0.26165085    -0.76900
C475        C  0.30789331  0.77141795  0.33338406     0.85300
C476        C  0.24847780  0.65508084  0.36077232     0.85600
O477        O  0.24348328  0.68487095  0.37798464    -0.79300
C478        C  0.18077492  0.84105129  0.98176851     0.04800
C479        C  0.17866069  0.87185179  0.45525025    -0.11300
C480        C  0.15150536  0.87926888  0.41711016     0.02300
C481        C  0.13260094  0.85288296  0.39389821    -0.09800
C482        C  0.13997085  0.81951368  0.41082363     0.04800
C483        C  0.16258190  0.81390188  0.45720901    -0.09300
H484        H  0.19535221  0.89197676  0.96925833     0.10400
H485        H  0.11227955  0.85816273  0.36296295     0.08000
H486        H  0.16507569  0.78901620  0.97411084     0.07800
C487        C  0.22529067  0.87048894  0.11504094     0.04800
C488        C  0.20325096  0.86954101  0.06829785    -0.11300
C489        C  0.20045872  0.84001075  0.03601032     0.02300
C490        C  0.21624056  0.81055706  0.05691873    -0.09800
C491        C  0.23683718  0.81143210  0.10552692     0.04800
C492        C  0.24314435  0.84164493  0.13192466    -0.09300
H493        H  0.18852316  0.89208192  0.05751301     0.10400
H494        H  0.21207531  0.78696089  0.03665935     0.08000
H495        H  0.25872796  0.84204607  0.16973192     0.07800
N496        N  0.13974043  0.91371447  0.41251734    -0.01800
C497        C  0.16650919  0.93611857  0.40361846     0.00800
C498        C  0.17155659  0.95672940  0.44808946    -0.22100
C499        C  0.14514569  0.94899287  0.48447104    -0.22300
C500        C  0.12379009  0.92569815  0.45927998     0.00700
H501        H  0.19165040  0.97587755  0.45271858     0.14500
H502        H  0.13927172  0.96178500  0.52232280     0.14500
N503        N  0.36382332  0.53461301  0.11058808    -0.01800
C504        C  0.34852236  0.53170706  0.16106879     0.00800
C505        C  0.37422415  0.02637620  0.20132628    -0.22100
C506        C  0.40656696  0.02284953  0.17467637    -0.22300
C507        C  0.39921982  0.52704748  0.11948989     0.00700
H508        H  0.36924106  0.02074442  0.24428030     0.14500
H509        H  0.43175829  0.01437218  0.19279169     0.14500
O510        O  0.16897656  0.98425025  0.19120641    -0.76800
C511        C  0.22986690  0.90092152  0.14793188     0.84300
O512        O  0.22413238  0.94190109  0.36669658    -0.77900
O513        O  0.32480524  0.93392791  0.23362804    -0.79400
O514        O  0.29295599  0.53276439  0.20798123    -0.79200
O515        O  0.20207011  0.53023215  0.18304395    -0.77800
Zn516      Zn  0.19995472  0.95043016  0.23313100     1.55700
O517        O  0.30283789  0.99243833  0.14710634    -0.79200
Cd518      Cd  0.24334212  0.51825156  0.23691483     1.59700
Cd519      Cd  0.26502804  0.96347001  0.32332443     1.59600
O520        O  0.23744571  0.54152337  0.31147241    -0.79200
O521        O  0.24627146  0.96981082  0.24699494    -1.89700
Cd522      Cd  0.28113264  0.95328404  0.19196670     1.59900
O523        O  0.27262603  0.50942353  0.36392000    -0.79200
O524        O  0.25970127  0.91622044  0.14379351    -0.77800
C525        C  0.19078343  0.93747647  0.35618954     0.84700
C526        C  0.17411687  0.51340337  0.17166524     0.84400
O527        O  0.20533138  0.90986540  0.18216790    -0.76800
C528        C  0.31198318  0.51949726  0.17020760     0.85200
O529        O  0.17759804  0.93933064  0.30762582    -0.76900
C530        C  0.25612158  0.53708916  0.35506870     0.85300
C531        C  0.33462206  0.92992788  0.28350971     0.85600
O532        O  0.31395762  0.93682296  0.32413329    -0.79300
C533        C  0.25382484  0.62633531  0.39853576     0.04800
C534        C  0.27779443  0.62698544  0.44344273    -0.11300
C535        C  0.29315497  0.59690762  0.46493075     0.02300
C536        C  0.28526175  0.56674931  0.43636230    -0.09800
C537        C  0.26011705  0.56611775  0.39291027     0.04800
C538        C  0.24238082  0.59572155  0.37854178    -0.09300
H539        H  0.28563771  0.65103698  0.45855800     0.10400
H540        H  0.29968997  0.54386711  0.44523770     0.08000
H541        H  0.22302388  0.59576160  0.34507724     0.07800
C542        C  0.31925402  0.59683074  0.51350023     0.04800
C543        C  0.32975052  0.56606168  0.03866821    -0.11300
C544        C  0.35529485  0.56488263  0.08094898     0.02300
C545        C  0.36931682  0.59453381  0.10076764    -0.09800
C546        C  0.35788904  0.62561533  0.08116745     0.04800
C547        C  0.33326533  0.62685835  0.03677958    -0.09300
H548        H  0.31777085  0.54272392  0.52738133     0.10400
H549        H  0.38769995  0.59342293  0.13539186     0.08000
H550        H  0.32538926  0.65116384  0.52170966     0.07800
N551        N  0.11899862  0.65224845  0.13312867    -0.01800
C552        C  0.10944052  0.65787162  0.07946415     0.00800
C553        C  0.13906035  0.65642150  0.04473766    -0.22100
C554        C  0.16852193  0.65297805  0.07746568    -0.22300
C555        C  0.15585018  0.65251647  0.13083038     0.00700
H556        H  0.13969726  0.66212355  0.00115566     0.14500
H557        H  0.19622662  0.65635772  0.06435835     0.14500
N558        N  0.36929723  0.78899994  0.36443862    -0.01800
C559        C  0.38309237  0.78257825  0.41541348     0.00800
C560        C  0.35646649  0.78207397  0.45494499    -0.22100
C561        C  0.32460183  0.78630568  0.42790786    -0.22300
C562        C  0.33280968  0.78784609  0.37222727     0.00700
H563        H  0.35953620  0.77495796  0.49772735     0.14500
H564        H  0.29828351  0.78238501  0.44617256     0.14500
O565        O  0.02915981  0.67249677  0.39669298    -0.76800
C566        C  0.06284408  0.77475479  0.41595743     0.84300
O567        O  0.05144940  0.68409168  0.09406058    -0.77900
O568        O  0.49103401  0.78986001  0.05292548    -0.79400
O569        O  0.41766985  0.73342176  0.42974099    -0.79200
O570        O  0.47016533  0.66227832  0.40569819    -0.77800
Zn571      Zn  0.04115477  0.70538483  0.45580554     1.55700
O572        O  0.44437648  0.78235707  0.44187031    -0.79200
Cd573      Cd  0.45335931  0.69775687  0.46326298     1.59700
Cd574      Cd  0.50382262  0.71014751  0.07396387     1.59600
O575        O  0.42399560  0.67477536  0.02728333    -0.79200
O576        O  0.99783587  0.71983701  0.49259526    -1.89700
Cd577      Cd  0.99260754  0.76837334  0.47846783     1.59900
O578        O  0.46173940  0.68153469  0.09769220    -0.79200
O579        O  0.03431909  0.78869875  0.43419663    -0.77800
C580        C  0.07586768  0.67463162  0.06041537     0.84700
C581        C  0.00108393  0.65619862  0.38401911     0.84400
O582        O  0.06916521  0.74372761  0.42272802    -0.76800
C583        C  0.41755018  0.76524996  0.42679521     0.85200
O584        O  0.07356687  0.68134253  0.00920548    -0.76900
C585        C  0.43213521  0.67112168  0.07803537     0.85300
C586        C  0.49248838  0.78282024  0.10395664     0.85600
O587        O  0.49792225  0.75320616  0.12136276    -0.79300
C588        C  0.01014458  0.56577456  0.35730836     0.04800
C589        C  0.99471424  0.59625652  0.37316558    -0.11300
C590        C  0.00627684  0.62609619  0.35024220     0.02300
C591        C  0.02997103  0.62557564  0.30500587    -0.09800
C592        C  0.04350275  0.59512566  0.28319661     0.04800
C593        C  0.03410951  0.56527863  0.31203774    -0.09300
H594        H  0.97711362  0.59737930  0.40884717     0.10400
H595        H  0.03820923  0.64932754  0.28889900     0.08000
H596        H  0.04633268  0.54160107  0.30198628     0.07800
C597        C  0.06861972  0.59462894  0.23319350     0.04800
C598        C  0.08154263  0.62461521  0.20743680    -0.11300
C599        C  0.10410300  0.62321834  0.16051648     0.02300
C600        C  0.11461351  0.59213103  0.14070617    -0.09800
C601        C  0.10333928  0.56255530  0.16477868     0.04800
C602        C  0.07967016  0.56368259  0.20957343    -0.09300
H603        H  0.07472853  0.64903277  0.22266871     0.10400
H604        H  0.13188943  0.59084733  0.10470435     0.08000
H605        H  0.06988027  0.54008144  0.22412528     0.07800
N606        N  0.11344504  0.53195632  0.13790001    -0.01800
C607        C  0.09858719  0.52774592  0.08761968     0.00800
C608        C  0.12445761  0.02317398  0.04746344    -0.22100
C609        C  0.15685868  0.02129508  0.07429410    -0.22300
C610        C  0.14921992  0.52584153  0.12935408     0.00700
H611        H  0.11978956  0.01754101  0.00454816     0.14500
H612        H  0.18247563  0.01370503  0.05650700     0.14500
N613        N  0.38951956  0.91103556  0.33769602    -0.01800
C614        C  0.41775224  0.93201519  0.34636824     0.00800
C615        C  0.42277475  0.95400964  0.30343655    -0.22100
C616        C  0.39515876  0.94891326  0.26832631    -0.22300
C617        C  0.37353448  0.92523852  0.29248004     0.00700
H618        H  0.44302373  0.97314334  0.29999077     0.14500
H619        H  0.38867869  0.96402732  0.23286848     0.14500
O620        O  0.45309135  0.91063641  0.06973336    -0.76800
C621        C  0.42394753  0.51404470  0.07751466     0.84300
O622        O  0.47458672  0.93804103  0.38515032    -0.77900
O623        O  0.98710172  0.54123177  0.43885713    -0.79400
O624        O  0.05047540  0.99133072  0.10367397    -0.79200
O625        O  0.00810424  0.91544274  0.10634232    -0.77800
Zn626      Zn  0.44842973  0.95051464  0.01698138     1.55700
O627        O  0.04352476  0.53064505  0.03991326    -0.79200
Cd628      Cd  0.02992941  0.95236651  0.05833459     1.59700
Cd629      Cd  0.01430201  0.96227718  0.42709442     1.59600
O630        O  0.07446778  0.93356329  0.51789193    -0.79200
O631        O  0.49523964  0.96896092  0.50297388    -1.89700
Cd632      Cd  0.49331281  0.51735621  0.01277084     1.59900
O633        O  0.06423465  0.93721918  0.42734478    -0.79200
O634        O  0.45284274  0.52982551  0.06731133    -0.77800
C635        C  0.44102506  0.93389040  0.39482712     0.84700
C636        C  0.47776904  0.90097961  0.10317844     0.84400
O637        O  0.41762335  0.98540381  0.05710056    -0.76800
C638        C  0.06151620  0.51724012  0.07874138     0.85200
O639        O  0.42691533  0.93764019  0.44257443    -0.76900
C640        C  0.08475324  0.93022601  0.46809112     0.85300
C641        C  0.00526200  0.53654919  0.39488325     0.85600
O642        O  0.02072308  0.50844961  0.38546894    -0.79300
C643        C  0.42653839  0.83789931  0.26395049     0.04800
C644        C  0.40743078  0.81096751  0.28753924    -0.11300
C645        C  0.38473204  0.81651707  0.33384773     0.02300
C646        C  0.37850197  0.84981343  0.35208757    -0.09800
C647        C  0.39883847  0.87606960  0.33030845     0.04800
C648        C  0.42543033  0.86838908  0.29139255    -0.09300
H649        H  0.40973921  0.78622383  0.27032241     0.10400
H650        H  0.35869265  0.85496738  0.38385011     0.08000
H651        H  0.44289027  0.88818801  0.27785927     0.07800
C652        C  0.48552571  0.81094251  0.14118750     0.04800
C653        C  0.46375053  0.80833856  0.18879453    -0.11300
C654        C  0.44660645  0.83723143  0.21002676     0.05500
C655        C  0.44892971  0.86731655  0.17879234    -0.09800
C656        C  0.47314707  0.87011220  0.13506875     0.04800
C657        C  0.49305036  0.84242423  0.11924300    -0.09300
H658        H  0.45921539  0.78421166  0.20742197     0.10400
H659        H  0.43279456  0.88908235  0.18918856     0.08000
H660        H  0.01113039  0.84470945  0.08421539     0.07800
N661        N  0.12284333  0.79233909  0.88200772    -0.01800
C662        C  0.13363310  0.78649761  0.82927239     0.00800
C663        C  0.10503470  0.78976856  0.79302063    -0.22100
C664        C  0.07491667  0.79447517  0.82432534    -0.22300
C665        C  0.08610838  0.79343062  0.87846676     0.00700
H666        H  0.10514187  0.78421731  0.74945620     0.14500
H667        H  0.04746285  0.79204585  0.80962889     0.14500
N668        N  0.36987109  0.65478671  0.61093706    -0.01800
C669        C  0.35655356  0.65857007  0.66322359     0.00800
C670        C  0.38358660  0.65889063  0.70204846    -0.22100
C671        C  0.41517746  0.65805859  0.67397297    -0.22300
C672        C  0.40631299  0.65765313  0.61863176     0.00700
H673        H  0.38062279  0.66418606  0.74552671     0.14500
H674        H  0.44152537  0.66215852  0.69184504     0.14500
O675        O  0.21475325  0.76479363  0.65034203    -0.76800
C676        C  0.17833311  0.66842094  0.67181595     0.84300
O677        O  0.18896292  0.75582069  0.84793500    -0.77900
O678        O  0.25006804  0.64820621  0.80962097    -0.79400
O679        O  0.32312357  0.70722129  0.68347715    -0.79200
O680        O  0.27277317  0.77710847  0.66295051    -0.77800
Zn681      Zn  0.20196432  0.73517826  0.71247696     1.55700
O682        O  0.29622900  0.65820489  0.69467176    -0.79200
Cd683      Cd  0.28859587  0.74201523  0.72039932     1.59700
Cd684      Cd  0.23747976  0.72920611  0.83104459     1.59600
O685        O  0.31675871  0.76654179  0.78319956    -0.79200
O686        O  0.24432061  0.71973258  0.75009743    -1.89700
Cd687      Cd  0.24879899  0.67132240  0.73506343     1.59900
O688        O  0.27878946  0.75986817  0.85375124    -0.79200
O689        O  0.20675358  0.65351818  0.68860266    -0.77800
C690        C  0.16666265  0.76779707  0.81273400     0.84700
C691        C  0.24251570  0.78172667  0.63899840     0.84400
O692        O  0.17204575  0.69893258  0.68170006    -0.76800
C693        C  0.32261152  0.67558265  0.67806586     0.85200
O694        O  0.17040709  0.76203720  0.76164981    -0.76900
C695        C  0.30789360  0.77141828  0.83338432     0.85300
C696        C  0.24847796  0.65508101  0.86077206     0.85600
O697        O  0.24348361  0.68487115  0.87798432    -0.79300
C698        C  0.18077535  0.84105153  0.48176840     0.04800
C699        C  0.17866052  0.87185152  0.95525030    -0.11300
C700        C  0.15150546  0.87926872  0.91710985     0.02300
C701        C  0.13260113  0.85288283  0.89389754    -0.09800
C702        C  0.13997089  0.81951353  0.91082300     0.04800
C703        C  0.16258160  0.81390164  0.95720882    -0.09300
H704        H  0.19535238  0.89197710  0.46925810     0.10400
H705        H  0.11227992  0.85816264  0.86296197     0.08000
H706        H  0.16507621  0.78901622  0.47411114     0.07800
C707        C  0.22529111  0.87048927  0.61504070     0.04800
C708        C  0.20325149  0.86954124  0.56829758    -0.11300
C709        C  0.20045944  0.84001106  0.53600996     0.02300
C710        C  0.21624166  0.81055735  0.55691803    -0.09800
C711        C  0.23683830  0.81143256  0.60552633     0.04800
C712        C  0.24314520  0.84164538  0.63192435    -0.09300
H713        H  0.18852343  0.89208214  0.55751283     0.10400
H714        H  0.21207672  0.78696190  0.53665919     0.08000
H715        H  0.25872848  0.84204660  0.66973099     0.07800
N716        N  0.13974073  0.91371437  0.91251703    -0.01800
C717        C  0.16650962  0.93611837  0.90361835     0.00800
C718        C  0.17155690  0.95672936  0.94808923    -0.22100
C719        C  0.14514586  0.94899292  0.98447070    -0.22300
C720        C  0.12379036  0.92569810  0.95927962     0.00700
H721        H  0.19165053  0.97587744  0.95271833     0.14500
H722        H  0.13927185  0.96178498  0.02232208     0.14500
N723        N  0.36382322  0.53461321  0.61058809    -0.01800
C724        C  0.34852214  0.53170716  0.66106870     0.00800
C725        C  0.37422383  0.02637606  0.70132624    -0.22100
C726        C  0.40656664  0.02284944  0.67467637    -0.22300
C727        C  0.39921966  0.52704754  0.61948992     0.00700
H728        H  0.36924061  0.02074412  0.74428019     0.14500
H729        H  0.43175828  0.01437186  0.69279201     0.14500
O730        O  0.16897637  0.98425048  0.69120656    -0.76800
C731        C  0.22986712  0.90092190  0.64793160     0.84300
O732        O  0.22413266  0.94190131  0.86669617    -0.77900
O733        O  0.32480563  0.93392884  0.73362753    -0.79400
O734        O  0.29295583  0.53276463  0.70798114    -0.79200
O735        O  0.20206992  0.53023224  0.68304360    -0.77800
Zn736      Zn  0.19995477  0.95043040  0.73313095     1.55700
O737        O  0.30283733  0.99243905  0.64710567    -0.79200
Cd738      Cd  0.24334192  0.51825197  0.73691456     1.59700
Cd739      Cd  0.26502814  0.96347024  0.82332374     1.59600
O740        O  0.23744526  0.54152354  0.81147242    -0.79200
O741        O  0.24627148  0.96981109  0.74699452    -1.89700
Cd742      Cd  0.28113272  0.95328455  0.69196631     1.59900
O743        O  0.27262609  0.50942375  0.86391931    -0.79200
O744        O  0.25970143  0.91622090  0.64379320    -0.77800
C745        C  0.19078373  0.93747648  0.85618933     0.84700
C746        C  0.17411661  0.51340350  0.67166516     0.84400
O747        O  0.20533151  0.90986578  0.68216751    -0.76800
C748        C  0.31198287  0.51949759  0.67020726     0.85200
O749        O  0.17759821  0.93933062  0.80762570    -0.76900
C750        C  0.25612138  0.53708929  0.85506847     0.85300
C751        C  0.33462236  0.92992847  0.78350920     0.85600
O752        O  0.31395774  0.93682318  0.82413272    -0.79300
C753        C  0.25382497  0.62633541  0.89853550     0.04800
C754        C  0.27779454  0.62698539  0.94344251    -0.11300
C755        C  0.29315501  0.59690751  0.96493053     0.02300
C756        C  0.28526175  0.56674929  0.93636200    -0.09800
C757        C  0.26011697  0.56611781  0.89291007     0.04800
C758        C  0.24238083  0.59572167  0.87854168    -0.09300
H759        H  0.28563796  0.65103709  0.95855799     0.10400
H760        H  0.29968998  0.54386697  0.94523732     0.08000
H761        H  0.22302364  0.59576178  0.84507691     0.07800
C762        C  0.31925408  0.59683053  0.01350000     0.04800
C763        C  0.32975053  0.56606207  0.53866850    -0.11300
C764        C  0.35529485  0.56488283  0.58094904     0.02300
C765        C  0.36931687  0.59453400  0.60076771    -0.09800
C766        C  0.35788903  0.62561551  0.58116773     0.04800
C767        C  0.33326526  0.62685863  0.53677982    -0.09300
H768        H  0.31777135  0.54272435  0.02738143     0.10400
H769        H  0.38770013  0.59342306  0.63539200     0.08000
H770        H  0.32538922  0.65116383  0.02170929     0.07800
N771        N  0.11899882  0.65224868  0.63312866    -0.01800
C772        C  0.10944069  0.65787184  0.57946416     0.00800
C773        C  0.13906043  0.65642153  0.54473737    -0.22100
C774        C  0.16852209  0.65297804  0.57746546    -0.22300
C775        C  0.15585038  0.65251662  0.63083026     0.00700
H776        H  0.13969727  0.66212334  0.50115640     0.14500
H777        H  0.19622636  0.65635754  0.56435808     0.14500
N778        N  0.36929747  0.78900052  0.86443913    -0.01800
C779        C  0.38309259  0.78257897  0.91541399     0.00800
C780        C  0.35646667  0.78207471  0.95494554    -0.22100
C781        C  0.32460208  0.78630617  0.92790812    -0.22300
C782        C  0.33280992  0.78784650  0.87222760     0.00700
H783        H  0.35953631  0.77495885  0.99772753     0.14500
H784        H  0.29828344  0.78238534  0.94617296     0.14500
O785        O  0.02915957  0.67249676  0.89669315    -0.76800
C786        C  0.06284425  0.77475461  0.91595707     0.84300
O787        O  0.05144963  0.68409197  0.59406054    -0.77900
O788        O  0.49103281  0.78985993  0.55292504    -0.79400
O789        O  0.41767007  0.73342240  0.92974073    -0.79200
O790        O  0.47016501  0.66227856  0.90569790    -0.77800
Zn791      Zn  0.04115463  0.70538481  0.95580557     1.55700
O792        O  0.44437663  0.78235764  0.94187131    -0.79200
Cd793      Cd  0.45335916  0.69775714  0.96326295     1.59700
Cd794      Cd  0.50382249  0.71014756  0.57396393     1.59600
O795        O  0.42399586  0.67477508  0.52728347    -0.79200
O796        O  0.99783585  0.71983708  0.99259530    -1.89700
Cd797      Cd  0.99260788  0.76837354  0.97846824     1.59900
O798        O  0.46173953  0.68153464  0.59769239    -0.79200
O799        O  0.03431944  0.78869871  0.93419664    -0.77800
C800        C  0.07586785  0.67463180  0.56041531     0.84700
C801        C  0.00108366  0.65619872  0.88401906     0.84400
O802        O  0.06916523  0.74372740  0.92272765    -0.76800
C803        C  0.41755038  0.76525062  0.92679568     0.85200
O804        O  0.07356698  0.68134255  0.50920539    -0.76900
C805        C  0.43213540  0.67112152  0.57803553     0.85300
C806        C  0.49248738  0.78282039  0.60395628     0.85600
O807        O  0.49792179  0.75320642  0.62136268    -0.79300
C808        C  0.01014469  0.56577472  0.85730842     0.04800
C809        C  0.99471405  0.59625660  0.87316537    -0.11300
C810        C  0.00627666  0.62609632  0.85024211     0.02300
C811        C  0.02997101  0.62557574  0.80500601    -0.09800
C812        C  0.04350300  0.59512588  0.78319689     0.04800
C813        C  0.03410987  0.56527880  0.81203809    -0.09300
H814        H  0.97711323  0.59737933  0.90884688     0.10400
H815        H  0.03820936  0.64932807  0.78889872     0.08000
H816        H  0.04633320  0.54160159  0.80198711     0.07800
C817        C  0.06862000  0.59462919  0.73319381     0.04800
C818        C  0.08154298  0.62461540  0.70743706    -0.11300
C819        C  0.10410312  0.62321859  0.66051649     0.02300
C820        C  0.11461328  0.59213126  0.64070585    -0.09800
C821        C  0.10333908  0.56255554  0.66477841     0.04800
C822        C  0.07967023  0.56368285  0.70957351    -0.09300
H823        H  0.07472894  0.64903333  0.72266952     0.10400
H824        H  0.13188913  0.59084754  0.60470363     0.08000
H825        H  0.06988034  0.54008174  0.72412539     0.07800
N826        N  0.11344477  0.53195652  0.63789983    -0.01800
C827        C  0.09858690  0.52774593  0.58761952     0.00800
C828        C  0.12445734  0.02317400  0.54746339    -0.22100
C829        C  0.15685828  0.02129508  0.57429405    -0.22300
C830        C  0.14921968  0.52584167  0.62935394     0.00700
H831        H  0.11978922  0.01754093  0.50454762     0.14500
H832        H  0.18247590  0.01370480  0.55650651     0.14500
N833        N  0.38951969  0.91103621  0.83769604    -0.01800
C834        C  0.41775229  0.93201586  0.84636837     0.00800
C835        C  0.42277510  0.95401034  0.80343656    -0.22100
C836        C  0.39515929  0.94891351  0.76832608    -0.22300
C837        C  0.37353480  0.92523899  0.79247969     0.00700
H838        H  0.44302335  0.97314331  0.79999100     0.14500
H839        H  0.38867934  0.96402779  0.73286696     0.14500
O840        O  0.45309088  0.91063683  0.56973319    -0.76800
C841        C  0.42394735  0.51404489  0.57751454     0.84300
O842        O  0.47458684  0.93804146  0.88515032    -0.77900
O843        O  0.98710202  0.54123185  0.93885723    -0.79400
O844        O  0.05047471  0.99133125  0.60367407    -0.79200
O845        O  0.00810375  0.91544310  0.60634231    -0.77800
Zn846      Zn  0.44842932  0.95051489  0.51698102     1.55700
O847        O  0.04352464  0.53064508  0.53991257    -0.79200
Cd848      Cd  0.02992895  0.95236695  0.55833465     1.59700
Cd849      Cd  0.01430216  0.96227723  0.92709450     1.59600
O850        O  0.07446806  0.93356256  0.01789180    -0.79200
O851        O  0.49523992  0.96896086  0.00297413    -1.89700
Cd852      Cd  0.49331262  0.51735623  0.51277080     1.59900
O853        O  0.06423495  0.93721941  0.92734473    -0.79200
O854        O  0.45284274  0.52982553  0.56731159    -0.77800
C855        C  0.44102520  0.93389084  0.89482716     0.84700
C856        C  0.47776850  0.90098006  0.60317842     0.84400
O857        O  0.41762285  0.98540405  0.55709988    -0.76800
C858        C  0.06151582  0.51724034  0.57874114     0.85200
O859        O  0.42691554  0.93764024  0.94257460    -0.76900
C860        C  0.08475351  0.93022577  0.96809090     0.85300
C861        C  0.00526229  0.53654935  0.89488333     0.85600
O862        O  0.02072342  0.50844981  0.88546899    -0.79300
C863        C  0.42653891  0.83789986  0.76395150     0.04800
C864        C  0.40743109  0.81096818  0.78754007    -0.11300
C865        C  0.38473226  0.81651769  0.83384825     0.02300
C866        C  0.37850175  0.84981413  0.85208817    -0.09800
C867        C  0.39883867  0.87607021  0.83030892     0.04800
C868        C  0.42543089  0.86838957  0.79139376    -0.09300
H869        H  0.40973948  0.78622423  0.77032289     0.10400
H870        H  0.35869341  0.85496780  0.88384839     0.08000
H871        H  0.44289104  0.88818843  0.77786069     0.07800
C872        C  0.48552466  0.81094282  0.64118684     0.04800
C873        C  0.46375010  0.80833902  0.68879452    -0.11300
C874        C  0.44660663  0.83723203  0.71002748     0.05500
C875        C  0.44892998  0.86731719  0.67879329    -0.09800
C876        C  0.47314652  0.87011266  0.63506867     0.04800
C877        C  0.49304906  0.84242448  0.61924193    -0.09300
H878        H  0.45921498  0.78421206  0.70742213     0.10400
H879        H  0.43279513  0.88908342  0.68919036     0.08000
H880        H  0.01112869  0.84470966  0.58421340     0.07800
N881        N  0.62284326  0.29233922  0.38200853    -0.01800
C882        C  0.63363306  0.28649767  0.32927330     0.00800
C883        C  0.60503473  0.28976879  0.29302127    -0.22100
C884        C  0.57491668  0.29447571  0.32432602    -0.22300
C885        C  0.58610832  0.29343094  0.37846744     0.00700
H886        H  0.60514189  0.28421757  0.24945797     0.14500
H887        H  0.54746298  0.29204659  0.30962947     0.14500
N888        N  0.86987090  0.15478667  0.11093673    -0.01800
C889        C  0.85655330  0.15856998  0.16322320     0.00800
C890        C  0.88358627  0.15889051  0.20204815    -0.22100
C891        C  0.91517712  0.15805856  0.17397272    -0.22300
C892        C  0.90631278  0.15765321  0.11863150     0.00700
H893        H  0.88062232  0.16418587  0.24552627     0.14500
H894        H  0.94152533  0.16215855  0.19184522     0.14500
O895        O  0.71475232  0.26479322  0.15034282    -0.76800
C896        C  0.67833283  0.16842076  0.17181627     0.84300
O897        O  0.68896281  0.25582056  0.34793592    -0.77900
O898        O  0.75006799  0.14820601  0.30962124    -0.79400
O899        O  0.82312326  0.20722114  0.18347693    -0.79200
O900        O  0.77277229  0.27710810  0.16295076    -0.77800
Zn901      Zn  0.70196374  0.23517790  0.21247804     1.55700
O902        O  0.79622887  0.15820470  0.19467166    -0.79200
Cd903      Cd  0.78859550  0.24201489  0.22039931     1.59700
Cd904      Cd  0.73747945  0.22920580  0.33104492     1.59600
O905        O  0.81675843  0.26654146  0.28319932    -0.79200
O906        O  0.74432031  0.21973221  0.25009777    -1.89700
Cd907      Cd  0.74879890  0.17132208  0.23506345     1.59900
O908        O  0.77878925  0.25986779  0.35375107    -0.79200
O909        O  0.70675355  0.15351811  0.18860228    -0.77800
C910        C  0.66666244  0.26779686  0.31273499     0.84700
C911        C  0.74251472  0.28172625  0.13899887     0.84400
O912        O  0.67204513  0.19893224  0.18170125    -0.76800
C913        C  0.82261126  0.17558251  0.17806553     0.85200
O914        O  0.67040672  0.26203682  0.26165088    -0.76900
C915        C  0.80789333  0.27141795  0.33338408     0.85300
C916        C  0.74847782  0.15508087  0.36077234     0.85600
O917        O  0.74348332  0.18487097  0.37798461    -0.79300
C918        C  0.68077494  0.34105126  0.98176850     0.04800
C919        C  0.67866073  0.37185171  0.45525005    -0.11300
C920        C  0.65150538  0.37926888  0.41711010     0.02300
C921        C  0.63260093  0.35288295  0.39389819    -0.09800
C922        C  0.63997085  0.31951368  0.41082363     0.04800
C923        C  0.66258191  0.31390183  0.45720900    -0.09300
H924        H  0.69535225  0.39197672  0.96925829     0.10400
H925        H  0.61227952  0.35816273  0.36296294     0.08000
H926        H  0.66507570  0.28901613  0.97411082     0.07800
C927        C  0.72529060  0.37048899  0.11504100     0.04800
C928        C  0.70325089  0.36954114  0.06829778    -0.11300
C929        C  0.70045873  0.34001079  0.03601034     0.02300
C930        C  0.71624055  0.31055700  0.05691865    -0.09800
C931        C  0.73683721  0.31143215  0.10552691     0.04800
C932        C  0.74314432  0.34164498  0.13192469    -0.09300
H933        H  0.68852344  0.39208153  0.05751319     0.10400
H934        H  0.71207545  0.28696154  0.03665992     0.08000
H935        H  0.75872790  0.34204613  0.16973182     0.07800
N936        N  0.63974043  0.41371447  0.41251739    -0.01800
C937        C  0.66650914  0.43611862  0.40361848     0.00800
C938        C  0.67155651  0.45672951  0.44808944    -0.22100
C939        C  0.64514553  0.44899299  0.48447110    -0.22300
C940        C  0.62379005  0.42569810  0.45928002     0.00700
H941        H  0.69165014  0.47587748  0.45271861     0.14500
H942        H  0.63927169  0.46178474  0.52232210     0.14500
N943        N  0.86382333  0.03461301  0.11058805    -0.01800
C944        C  0.84852238  0.03170701  0.16106877     0.00800
C945        C  0.87422416  0.52637614  0.20132631    -0.22100
C946        C  0.90656700  0.52284958  0.17467636    -0.22300
C947        C  0.89921982  0.02704745  0.11948989     0.00700
H948        H  0.86924110  0.52074435  0.24428004     0.14500
H949        H  0.93175835  0.51437227  0.19279169     0.14500
O950        O  0.66897659  0.48425034  0.19120647    -0.76800
C951        C  0.72986686  0.40092162  0.14793187     0.84300
O952        O  0.72413235  0.44190120  0.36669662    -0.77900
O953        O  0.82480521  0.43392799  0.23362804    -0.79400
O954        O  0.79295603  0.03276431  0.20798121    -0.79200
O955        O  0.70207013  0.03023207  0.18304396    -0.77800
Zn956      Zn  0.69995473  0.45043030  0.23313101     1.55700
O957        O  0.80283787  0.49243840  0.14710638    -0.79200
Cd958      Cd  0.74334214  0.01825164  0.23691484     1.59700
Cd959      Cd  0.76502805  0.46346996  0.32332442     1.59600
O960        O  0.73744569  0.04152347  0.31147242    -0.79200
O961        O  0.74627145  0.46981084  0.24699497    -1.89700
Cd962      Cd  0.78113248  0.45328402  0.19196670     1.59900
O963        O  0.77262601  0.00942360  0.36391999    -0.79200
O964        O  0.75970123  0.41622051  0.14379344    -0.77800
C965        C  0.69078341  0.43747658  0.35618956     0.84700
C966        C  0.67411689  0.01340330  0.17166522     0.84400
O967        O  0.70533138  0.40986556  0.18216792    -0.76800
C968        C  0.81198322  0.01949716  0.17020760     0.85200
O969        O  0.67759805  0.43933078  0.30762581    -0.76900
C970        C  0.75612150  0.03708922  0.35506874     0.85300
C971        C  0.83462207  0.42992790  0.28350971     0.85600
O972        O  0.81395767  0.43682302  0.32413330    -0.79300
C973        C  0.75382485  0.12633533  0.39853576     0.04800
C974        C  0.77779448  0.12698558  0.44344281    -0.11300
C975        C  0.79315499  0.09690760  0.46493074     0.02300
C976        C  0.78526171  0.06674943  0.43636224    -0.09800
C977        C  0.76011704  0.06611777  0.39291029     0.04800
C978        C  0.74238082  0.09572161  0.37854181    -0.09300
H979        H  0.78563750  0.15103640  0.45855757     0.10400
H980        H  0.79969027  0.04386668  0.44523789     0.08000
H981        H  0.72302383  0.09576165  0.34507728     0.07800
C982        C  0.81925404  0.09683070  0.51350024     0.04800
C983        C  0.82975057  0.06606186  0.03866824    -0.11300
C984        C  0.85529485  0.06488265  0.08094895     0.02300
C985        C  0.86931680  0.09453385  0.10076767    -0.09800
C986        C  0.85788897  0.12561539  0.08116751     0.04800
C987        C  0.83326531  0.12685845  0.03677959    -0.09300
H988        H  0.81777109  0.04272426  0.52738157     0.10400
H989        H  0.88769990  0.09342295  0.13539172     0.08000
H990        H  0.82538932  0.15116372  0.52170972     0.07800
N991        N  0.61899862  0.15224853  0.13312868    -0.01800
C992        C  0.60944054  0.15787163  0.07946415     0.00800
C993        C  0.63906039  0.15642156  0.04473766    -0.22100
C994        C  0.66852195  0.15297803  0.07746569    -0.22300
C995        C  0.65585019  0.15251658  0.13083038     0.00700
H996        H  0.63969731  0.16212366  0.00115572     0.14500
H997        H  0.69622666  0.15635762  0.06435834     0.14500
N998        N  0.86929723  0.28899998  0.36443862    -0.01800
C999        C  0.88309240  0.28257833  0.41541347     0.00800
C1000       C  0.85646652  0.28207412  0.45494499    -0.22100
C1001       C  0.82460187  0.28630581  0.42790783    -0.22300
C1002       C  0.83280970  0.28784614  0.37222725     0.00700
H1003       H  0.85953622  0.27495811  0.49772732     0.14500
H1004       H  0.79828347  0.28238509  0.44617259     0.14500
O1005       O  0.52915977  0.17249684  0.39669292    -0.76800
C1006       C  0.56284409  0.27475484  0.41595745     0.84300
O1007       O  0.55144942  0.18409159  0.09406058    -0.77900
O1008       O  0.99103382  0.28986000  0.05292545    -0.79400
O1009       O  0.91766983  0.23342177  0.42974100    -0.79200
O1010       O  0.97016534  0.16227826  0.40569824    -0.77800
Zn1011     Zn  0.54115461  0.20538477  0.45580555     1.55700
O1012       O  0.94437652  0.28235703  0.44187032    -0.79200
Cd1013     Cd  0.95335933  0.19775679  0.46326298     1.59700
Cd1014     Cd  0.00382261  0.21014745  0.07396389     1.59600
O1015       O  0.92399561  0.17477548  0.02728334    -0.79200
O1016       O  0.49783579  0.21983694  0.49259526    -1.89700
Cd1017     Cd  0.49260753  0.26837326  0.47846782     1.59900
O1018       O  0.96173945  0.18153458  0.09769220    -0.79200
O1019       O  0.53431910  0.28869882  0.43419664    -0.77800
C1020       C  0.57586769  0.17463154  0.06041534     0.84700
C1021       C  0.50108392  0.15619862  0.38401910     0.84400
O1022       O  0.56916516  0.24372764  0.42272808    -0.76800
C1023       C  0.91755020  0.26524997  0.42679522     0.85200
O1024       O  0.57356687  0.18134244  0.00920546    -0.76900
C1025       C  0.93213522  0.17112167  0.07803535     0.85300
C1026       C  0.99248834  0.28282027  0.10395661     0.85600
O1027       O  0.99792231  0.25320620  0.12136277    -0.79300
C1028       C  0.51014457  0.06577461  0.35730836     0.04800
C1029       C  0.49471424  0.09625654  0.37316558    -0.11300
C1030       C  0.50627688  0.12609623  0.35024218     0.02300
C1031       C  0.52997102  0.12557553  0.30500594    -0.09800
C1032       C  0.54350277  0.09512569  0.28319660     0.04800
C1033       C  0.53410956  0.06527854  0.31203771    -0.09300
H1034       H  0.47711366  0.09737934  0.40884709     0.10400
H1035       H  0.53820954  0.14932818  0.28889847     0.08000
H1036       H  0.54633238  0.04160161  0.30198662     0.07800
C1037       C  0.56861974  0.09462895  0.23319350     0.04800
C1038       C  0.58154263  0.12461524  0.20743679    -0.11300
C1039       C  0.60410302  0.12321841  0.16051653     0.02300
C1040       C  0.61461352  0.09213110  0.14070618    -0.09800
C1041       C  0.60333929  0.06255534  0.16477863     0.04800
C1042       C  0.57967019  0.06368261  0.20957342    -0.09300
H1043       H  0.57472840  0.14903292  0.22266880     0.10400
H1044       H  0.63188946  0.09084743  0.10470433     0.08000
H1045       H  0.56988037  0.04008153  0.22412517     0.07800
N1046       N  0.61344507  0.03195635  0.13790002    -0.01800
C1047       C  0.59858722  0.02774585  0.08761970     0.00800
C1048       C  0.62445762  0.52317404  0.04746346    -0.22100
C1049       C  0.65685870  0.52129498  0.07429407    -0.22300
C1050       C  0.64921996  0.02584157  0.12935409     0.00700
H1051       H  0.61978957  0.51754112  0.00454795     0.14500
H1052       H  0.68247547  0.51370497  0.05650708     0.14500
N1053       N  0.88951956  0.41103551  0.33769604    -0.01800
C1054       C  0.91775226  0.43201509  0.34636823     0.00800
C1055       C  0.92277480  0.45400961  0.30343653    -0.22100
C1056       C  0.89515878  0.44891313  0.26832642    -0.22300
C1057       C  0.87353448  0.42523845  0.29247999     0.00700
H1058       H  0.94302340  0.47314301  0.29999090     0.14500
H1059       H  0.88867856  0.46402762  0.23286790     0.14500
O1060       O  0.95309135  0.41063633  0.06973332    -0.76800
C1061       C  0.92394755  0.01404478  0.07751465     0.84300
O1062       O  0.97458671  0.43804112  0.38515029    -0.77900
O1063       O  0.48710167  0.04123178  0.43885710    -0.79400
O1064       O  0.55047545  0.49133075  0.10367394    -0.79200
O1065       O  0.50810426  0.41544271  0.10634225    -0.77800
Zn1066     Zn  0.94842974  0.45051456  0.01698139     1.55700
O1067       O  0.54352480  0.03064501  0.03991322    -0.79200
Cd1068     Cd  0.52992942  0.45236660  0.05833460     1.59700
Cd1069     Cd  0.51430203  0.46227710  0.42709442     1.59600
O1070       O  0.57446768  0.43356316  0.51789191    -0.79200
O1071       O  0.99523955  0.46896090  0.50297388    -1.89700
Cd1072     Cd  0.99331282  0.01735633  0.01277084     1.59900
O1073       O  0.56423465  0.43721909  0.42734474    -0.79200
O1074       O  0.95284273  0.02982565  0.06731134    -0.77800
C1075       C  0.94102508  0.43389036  0.39482711     0.84700
C1076       C  0.97776905  0.40097958  0.10317844     0.84400
O1077       O  0.91762334  0.48540372  0.05710061    -0.76800
C1078       C  0.56151622  0.01724007  0.07874138     0.85200
O1079       O  0.92691535  0.43764007  0.44257444    -0.76900
C1080       C  0.58475319  0.43022591  0.46809113     0.85300
C1081       C  0.50526201  0.03654924  0.39488325     0.85600
O1082       O  0.52072312  0.00844969  0.38546894    -0.79300
C1083       C  0.92653841  0.33789929  0.26395049     0.04800
C1084       C  0.90743074  0.31096762  0.28753934    -0.11300
C1085       C  0.88473202  0.31651709  0.33384769     0.02300
C1086       C  0.87850179  0.34981348  0.35208763    -0.09800
C1087       C  0.89883848  0.37606957  0.33030843     0.04800
C1088       C  0.92543029  0.36838899  0.29139264    -0.09300
H1089       H  0.90973926  0.28622329  0.27032207     0.10400
H1090       H  0.85869296  0.35496735  0.38384926     0.08000
H1091       H  0.94289060  0.38818827  0.27785911     0.07800
C1092       C  0.98552571  0.31094253  0.14118750     0.04800
C1093       C  0.96375054  0.30833858  0.18879446    -0.11300
C1094       C  0.94660645  0.33723142  0.21002676     0.05500
C1095       C  0.94892973  0.36731657  0.17879240    -0.09800
C1096       C  0.97314709  0.37011222  0.13506881     0.04800
C1097       C  0.99305038  0.34242426  0.11924300    -0.09300
H1098       H  0.95921533  0.28421151  0.20742192     0.10400
H1099       H  0.93279464  0.38908231  0.18918862     0.08000
H1100       H  0.51113037  0.34470951  0.08421540     0.07800
N1101       N  0.62284335  0.29233909  0.88200770    -0.01800
C1102       C  0.63363310  0.28649764  0.82927238     0.00800
C1103       C  0.60503469  0.28976855  0.79302063    -0.22100
C1104       C  0.57491669  0.29447523  0.82432534    -0.22300
C1105       C  0.58610840  0.29343065  0.87846674     0.00700
H1106       H  0.60514183  0.28421720  0.74945630     0.14500
H1107       H  0.54746280  0.29204591  0.80962886     0.14500
N1108       N  0.86987108  0.15478672  0.61093705    -0.01800
C1109       C  0.85655354  0.15857005  0.66322357     0.00800
C1110       C  0.88358659  0.15889052  0.70204845    -0.22100
C1111       C  0.91517744  0.15805856  0.67397296    -0.22300
C1112       C  0.90631299  0.15765322  0.61863178     0.00700
H1113       H  0.88062278  0.16418594  0.74552671     0.14500
H1114       H  0.94152547  0.16215851  0.69184511     0.14500
O1115       O  0.71475325  0.26479354  0.65034200    -0.76800
C1116       C  0.67833313  0.16842096  0.67181591     0.84300
O1117       O  0.68896290  0.25582078  0.84793499    -0.77900
O1118       O  0.75006806  0.14820621  0.80962100    -0.79400
O1119       O  0.82312359  0.20722133  0.68347710    -0.79200
O1120       O  0.77277313  0.27710850  0.66295058    -0.77800
Zn1121     Zn  0.70196434  0.23517820  0.71247699     1.55700
O1122       O  0.79622898  0.15820496  0.69467176    -0.79200
Cd1123     Cd  0.78859588  0.24201517  0.72039932     1.59700
Cd1124     Cd  0.73747977  0.22920625  0.83104458     1.59600
O1125       O  0.81675875  0.26654173  0.78319958    -0.79200
O1126       O  0.74432063  0.21973250  0.75009745    -1.89700
Cd1127     Cd  0.74879899  0.17132232  0.73506345     1.59900
O1128       O  0.77878944  0.25986833  0.85375123    -0.79200
O1129       O  0.70675356  0.15351818  0.68860268    -0.77800
C1130       C  0.66666262  0.26779710  0.81273397     0.84700
C1131       C  0.74251567  0.28172666  0.63899841     0.84400
O1132       O  0.67204578  0.19893261  0.68170001    -0.76800
C1133       C  0.82261151  0.17558268  0.67806585     0.85200
O1134       O  0.67040708  0.26203726  0.76164978    -0.76900
C1135       C  0.80789360  0.27141837  0.83338430     0.85300
C1136       C  0.74847798  0.15508109  0.86077207     0.85600
O1137       O  0.74348364  0.18487126  0.87798425    -0.79300
C1138       C  0.68077538  0.34105151  0.48176835     0.04800
C1139       C  0.67866054  0.37185148  0.95525029    -0.11300
C1140       C  0.65150547  0.37926869  0.91710987     0.02300
C1141       C  0.63260114  0.35288281  0.89389755    -0.09800
C1142       C  0.63997090  0.31951351  0.91082301     0.04800
C1143       C  0.66258161  0.31390160  0.95720882    -0.09300
H1144       H  0.69535262  0.39197723  0.46925803     0.10400
H1145       H  0.61227994  0.35816265  0.86296202     0.08000
H1146       H  0.66507620  0.28901624  0.47411108     0.07800
C1147       C  0.72529112  0.37048928  0.61504066     0.04800
C1148       C  0.70325151  0.36954130  0.56829751    -0.11300
C1149       C  0.70045944  0.34001107  0.53600993     0.02300
C1150       C  0.71624168  0.31055747  0.55691810    -0.09800
C1151       C  0.73683824  0.31143255  0.60552634     0.04800
C1152       C  0.74314518  0.34164539  0.63192433    -0.09300
H1153       H  0.68852353  0.39208214  0.55751272     0.10400
H1154       H  0.71207662  0.28696139  0.53665868     0.08000
H1155       H  0.75872848  0.34204658  0.66973104     0.07800
N1156       N  0.63974074  0.41371434  0.91251708    -0.01800
C1157       C  0.66650965  0.43611832  0.90361836     0.00800
C1158       C  0.67155694  0.45672930  0.94808919    -0.22100
C1159       C  0.64514586  0.44899298  0.98447075    -0.22300
C1160       C  0.62379037  0.42569810  0.95927964     0.00700
H1161       H  0.69165065  0.47587740  0.95271832     0.14500
H1162       H  0.63927196  0.46178484  0.02232141     0.14500
N1163       N  0.86382322  0.03461316  0.61058810    -0.01800
C1164       C  0.84852216  0.03170721  0.66106871     0.00800
C1165       C  0.87422384  0.52637608  0.70132624    -0.22100
C1166       C  0.90656668  0.52284938  0.67467639    -0.22300
C1167       C  0.89921968  0.02704747  0.61948993     0.00700
H1168       H  0.86924065  0.52074420  0.74428027     0.14500
H1169       H  0.93175808  0.51437186  0.69279184     0.14500
O1170       O  0.66897632  0.48425050  0.69120659    -0.76800
C1171       C  0.72986712  0.40092190  0.64793159     0.84300
O1172       O  0.72413269  0.44190119  0.86669617    -0.77900
O1173       O  0.82480558  0.43392873  0.73362751    -0.79400
O1174       O  0.79295583  0.03276474  0.70798115    -0.79200
O1175       O  0.70206987  0.03023230  0.68304363    -0.77800
Zn1176     Zn  0.69995479  0.45043052  0.73313095     1.55700
O1177       O  0.80283734  0.49243892  0.64710567    -0.79200
Cd1178     Cd  0.74334193  0.01825190  0.73691454     1.59700
Cd1179     Cd  0.76502815  0.46347018  0.82332374     1.59600
O1180       O  0.73744527  0.04152349  0.81147242    -0.79200
O1181       O  0.74627147  0.46981119  0.74699455    -1.89700
Cd1182     Cd  0.78113256  0.45328448  0.69196632     1.59900
O1183       O  0.77262612  0.00942375  0.86391933    -0.79200
O1184       O  0.75970142  0.41622086  0.64379320    -0.77800
C1185       C  0.69078375  0.43747643  0.85618932     0.84700
C1186       C  0.67411659  0.01340351  0.67166519     0.84400
O1187       O  0.70533153  0.40986578  0.68216754    -0.76800
C1188       C  0.81198287  0.01949770  0.67020728     0.85200
O1189       O  0.67759822  0.43933074  0.80762571    -0.76900
C1190       C  0.75612141  0.03708929  0.85506848     0.85300
C1191       C  0.83462237  0.42992846  0.78350917     0.85600
O1192       O  0.81395780  0.43682327  0.82413270    -0.79300
C1193       C  0.75382498  0.12633548  0.89853552     0.04800
C1194       C  0.77779460  0.12698555  0.94344256    -0.11300
C1195       C  0.79315503  0.09690760  0.96493050     0.02300
C1196       C  0.78526181  0.06674927  0.93636205    -0.09800
C1197       C  0.76011698  0.06611786  0.89291007     0.04800
C1198       C  0.74238087  0.09572173  0.87854168    -0.09300
H1199       H  0.78563778  0.15103670  0.95855761     0.10400
H1200       H  0.79968972  0.04386745  0.94523715     0.08000
H1201       H  0.72302371  0.09576183  0.84507695     0.07800
C1202       C  0.81925409  0.09683062  0.01349998     0.04800
C1203       C  0.82975050  0.06606191  0.53866845    -0.11300
C1204       C  0.85529490  0.06488278  0.58094901     0.02300
C1205       C  0.86931690  0.09453394  0.60076771    -0.09800
C1206       C  0.85788907  0.12561548  0.58116774     0.04800
C1207       C  0.83326528  0.12685856  0.53677982    -0.09300
H1208       H  0.81777107  0.04272397  0.02738114     0.10400
H1209       H  0.88770015  0.09342300  0.63539199     0.08000
H1210       H  0.82538926  0.15116394  0.02170929     0.07800
N1211       N  0.61899884  0.15224867  0.63312865    -0.01800
C1212       C  0.60944070  0.15787180  0.57946415     0.00800
C1213       C  0.63906046  0.15642159  0.54473734    -0.22100
C1214       C  0.66852212  0.15297799  0.57746547    -0.22300
C1215       C  0.65585040  0.15251660  0.63083026     0.00700
H1216       H  0.63969730  0.16212340  0.50115665     0.14500
H1217       H  0.69622640  0.15635742  0.56435808     0.14500
N1218       N  0.86929745  0.28900058  0.86443916    -0.01800
C1219       C  0.88309261  0.28257905  0.91541402     0.00800
C1220       C  0.85646670  0.28207466  0.95494559    -0.22100
C1221       C  0.82460209  0.28630611  0.92790813    -0.22300
C1222       C  0.83280990  0.28784656  0.87222762     0.00700
H1223       H  0.85953633  0.27495881  0.99772724     0.14500
H1224       H  0.79828347  0.28238523  0.94617298     0.14500
O1225       O  0.52915954  0.17249685  0.89669308    -0.76800
C1226       C  0.56284425  0.27475470  0.91595710     0.84300
O1227       O  0.55144957  0.18409191  0.59406051    -0.77900
O1228       O  0.99103282  0.28985990  0.55292502    -0.79400
O1229       O  0.91766991  0.23342236  0.92974072    -0.79200
O1230       O  0.97016500  0.16227855  0.90569798    -0.77800
Zn1231     Zn  0.54115465  0.20538477  0.95580558     1.55700
O1232       O  0.94437665  0.28235750  0.94187128    -0.79200
Cd1233     Cd  0.95335916  0.19775725  0.96326294     1.59700
Cd1234     Cd  0.00382268  0.21014768  0.57396393     1.59600
O1235       O  0.92399590  0.17477502  0.52728346    -0.79200
O1236       O  0.49783587  0.21983711  0.99259532    -1.89700
Cd1237     Cd  0.49260789  0.26837350  0.97846823     1.59900
O1238       O  0.96173955  0.18153483  0.59769237    -0.79200
O1239       O  0.53431944  0.28869882  0.93419664    -0.77800
C1240       C  0.57586782  0.17463172  0.56041529     0.84700
C1241       C  0.50108366  0.15619875  0.88401906     0.84400
O1242       O  0.56916522  0.24372748  0.92272771    -0.76800
C1243       C  0.91755033  0.26525058  0.92679567     0.85200
O1244       O  0.57356695  0.18134246  0.50920536    -0.76900
C1245       C  0.93213542  0.17112162  0.57803555     0.85300
C1246       C  0.99248740  0.28282042  0.60395628     0.85600
O1247       O  0.99792185  0.25320649  0.62136274    -0.79300
C1248       C  0.51014470  0.06577476  0.85730841     0.04800
C1249       C  0.49471407  0.09625662  0.87316533    -0.11300
C1250       C  0.50627669  0.12609635  0.85024214     0.02300
C1251       C  0.52997104  0.12557578  0.80500601    -0.09800
C1252       C  0.54350301  0.09512593  0.78319691     0.04800
C1253       C  0.53410991  0.06527876  0.81203802    -0.09300
H1254       H  0.47711319  0.09737935  0.90884687     0.10400
H1255       H  0.53820933  0.14932805  0.78889882     0.08000
H1256       H  0.54633290  0.04160201  0.80198723     0.07800
C1257       C  0.56862002  0.09462919  0.73319381     0.04800
C1258       C  0.58154297  0.12461551  0.70743713    -0.11300
C1259       C  0.60410314  0.12321858  0.66051649     0.02300
C1260       C  0.61461330  0.09213125  0.64070587    -0.09800
C1261       C  0.60333909  0.06255554  0.66477844     0.04800
C1262       C  0.57967024  0.06368285  0.70957355    -0.09300
H1263       H  0.57472914  0.14903282  0.72266912     0.10400
H1264       H  0.63188909  0.09084752  0.60470374     0.08000
H1265       H  0.56988043  0.04008185  0.72412529     0.07800
N1266       N  0.61344473  0.03195651  0.63789984    -0.01800
C1267       C  0.59858688  0.02774601  0.58761949     0.00800
C1268       C  0.62445733  0.52317386  0.54746341    -0.22100
C1269       C  0.65685831  0.52129498  0.57429405    -0.22300
C1270       C  0.64921963  0.02584162  0.62935398     0.00700
H1271       H  0.61978924  0.51754078  0.50454760     0.14500
H1272       H  0.68247565  0.51370480  0.55650676     0.14500
N1273       N  0.88951968  0.41103619  0.83769601    -0.01800
C1274       C  0.91775229  0.43201583  0.84636837     0.00800
C1275       C  0.92277514  0.45401030  0.80343657    -0.22100
C1276       C  0.89515927  0.44891358  0.76832602    -0.22300
C1277       C  0.87353481  0.42523900  0.79247969     0.00700
H1278       H  0.94302345  0.47314326  0.79999097     0.14500
H1279       H  0.88867945  0.46402758  0.73286762     0.14500
O1280       O  0.95309089  0.41063676  0.56973314    -0.76800
C1281       C  0.92394736  0.01404480  0.57751456     0.84300
O1282       O  0.97458681  0.43804139  0.88515035    -0.77900
O1283       O  0.48710202  0.04123194  0.93885722    -0.79400
O1284       O  0.55047473  0.49133121  0.60367400    -0.79200
O1285       O  0.50810371  0.41544317  0.60634234    -0.77800
Zn1286     Zn  0.94842931  0.45051482  0.51698103     1.55700
O1287       O  0.54352466  0.03064504  0.53991251    -0.79200
Cd1288     Cd  0.52992896  0.45236689  0.55833465     1.59700
Cd1289     Cd  0.51430218  0.46227731  0.92709450     1.59600
O1290       O  0.57446809  0.43356273  0.01789180    -0.79200
O1291       O  0.99523992  0.46896079  0.00297413    -1.89700
Cd1292     Cd  0.99331262  0.01735631  0.51277080     1.59900
O1293       O  0.56423495  0.43721937  0.92734472    -0.79200
O1294       O  0.95284273  0.02982546  0.56731160    -0.77800
C1295       C  0.94102516  0.43389082  0.89482718     0.84700
C1296       C  0.97776849  0.40098008  0.60317846     0.84400
O1297       O  0.91762287  0.48540414  0.55709987    -0.76800
C1298       C  0.56151585  0.01724034  0.57874109     0.85200
O1299       O  0.92691549  0.43764033  0.94257460    -0.76900
C1300       C  0.58475352  0.43022583  0.96809092     0.85300
C1301       C  0.50526230  0.03654939  0.89488333     0.85600
O1302       O  0.52072343  0.00844984  0.88546906    -0.79300
C1303       C  0.92653882  0.33789983  0.76395144     0.04800
C1304       C  0.90743104  0.31096813  0.78754007    -0.11300
C1305       C  0.88473219  0.31651770  0.83384820     0.02300
C1306       C  0.87850174  0.34981413  0.85208814    -0.09800
C1307       C  0.89883867  0.37607020  0.83030893     0.04800
C1308       C  0.92543081  0.36838947  0.79139380    -0.09300
H1309       H  0.90973948  0.28622414  0.77032300     0.10400
H1310       H  0.85869336  0.35496784  0.88384854     0.08000
H1311       H  0.94289130  0.38818864  0.77786050     0.07800
C1312       C  0.98552466  0.31094288  0.64118680     0.04800
C1313       C  0.96375011  0.30833902  0.68879454    -0.11300
C1314       C  0.94660658  0.33723201  0.71002745     0.05500
C1315       C  0.94892983  0.36731721  0.67879325    -0.09800
C1316       C  0.97314652  0.37011270  0.63506875     0.04800
C1317       C  0.99304907  0.34242455  0.61924194    -0.09300
H1318       H  0.95921505  0.28421225  0.70742195     0.10400
H1319       H  0.93279505  0.38908316  0.68919013     0.08000
H1320       H  0.51112868  0.34470971  0.58421329     0.07800
N1321       N  0.62284326  0.79233920  0.38200857    -0.01800
C1322       C  0.63363303  0.78649763  0.32927332     0.00800
C1323       C  0.60503474  0.78976882  0.29302127    -0.22100
C1324       C  0.57491668  0.79447564  0.32432604    -0.22300
C1325       C  0.58610832  0.79343089  0.37846747     0.00700
H1326       H  0.60514192  0.78421769  0.24945790     0.14500
H1327       H  0.54746299  0.79204646  0.30962949     0.14500
N1328       N  0.86987091  0.65478661  0.11093673    -0.01800
C1329       C  0.85655330  0.65856997  0.16322319     0.00800
C1330       C  0.88358627  0.65889058  0.20204813    -0.22100
C1331       C  0.91517714  0.65805860  0.17397273    -0.22300
C1332       C  0.90631279  0.65765318  0.11863150     0.00700
H1333       H  0.88062232  0.66418596  0.24552621     0.14500
H1334       H  0.94152522  0.66215859  0.19184514     0.14500
O1335       O  0.71475236  0.76479312  0.15034278    -0.76800
C1336       C  0.67833283  0.66842062  0.17181629     0.84300
O1337       O  0.68896283  0.75582064  0.34793591    -0.77900
O1338       O  0.75006800  0.64820603  0.30962121    -0.79400
O1339       O  0.82312327  0.70722112  0.18347691    -0.79200
O1340       O  0.77277229  0.77710812  0.16295084    -0.77800
Zn1341     Zn  0.70196374  0.73517778  0.21247805     1.55700
O1342       O  0.79622887  0.65820468  0.19467167    -0.79200
Cd1343     Cd  0.78859549  0.74201481  0.22039931     1.59700
Cd1344     Cd  0.73747944  0.72920584  0.33104493     1.59600
O1345       O  0.81675840  0.76654153  0.28319927    -0.79200
O1346       O  0.74432030  0.71973216  0.25009779    -1.89700
Cd1347     Cd  0.74879890  0.67132211  0.23506343     1.59900
O1348       O  0.77878929  0.75986771  0.35375106    -0.79200
O1349       O  0.70675357  0.65351799  0.18860230    -0.77800
C1350       C  0.66666246  0.76779691  0.31273498     0.84700
C1351       C  0.74251473  0.78172624  0.13899892     0.84400
O1352       O  0.67204513  0.69893209  0.18170126    -0.76800
C1353       C  0.82261127  0.67558249  0.17806552     0.85200
O1354       O  0.67040674  0.76203688  0.26165085    -0.76900
C1355       C  0.80789333  0.77141795  0.33338407     0.85300
C1356       C  0.74847782  0.65508084  0.36077232     0.85600
O1357       O  0.74348330  0.68487095  0.37798464    -0.79300
C1358       C  0.68077495  0.84105129  0.98176850     0.04800
C1359       C  0.67866070  0.87185180  0.45525024    -0.11300
C1360       C  0.65150537  0.87926889  0.41711015     0.02300
C1361       C  0.63260096  0.85288295  0.39389821    -0.09800
C1362       C  0.63997087  0.81951368  0.41082363     0.04800
C1363       C  0.66258192  0.81390188  0.45720901    -0.09300
H1364       H  0.69535223  0.89197676  0.96925831     0.10400
H1365       H  0.61227956  0.85816272  0.36296295     0.08000
H1366       H  0.66507571  0.78901620  0.97411084     0.07800
C1367       C  0.72529059  0.87048892  0.11504098     0.04800
C1368       C  0.70325095  0.86954100  0.06829784    -0.11300
C1369       C  0.70045873  0.84001075  0.03601030     0.02300
C1370       C  0.71624057  0.81055706  0.05691873    -0.09800
C1371       C  0.73683719  0.81143210  0.10552691     0.04800
C1372       C  0.74314434  0.84164493  0.13192468    -0.09300
H1373       H  0.68852313  0.89208197  0.05751294     0.10400
H1374       H  0.71207534  0.78696089  0.03665935     0.08000
H1375       H  0.75872793  0.84204610  0.16973180     0.07800
N1376       N  0.63974039  0.91371447  0.41251737    -0.01800
C1377       C  0.66650912  0.93611859  0.40361844     0.00800
C1378       C  0.67155653  0.95672942  0.44808948    -0.22100
C1379       C  0.64514558  0.94899290  0.48447106    -0.22300
C1380       C  0.62379003  0.92569812  0.45928002     0.00700
H1381       H  0.69165025  0.97587742  0.45271865     0.14500
H1382       H  0.63927163  0.96178493  0.52232259     0.14500
N1383       N  0.86382334  0.53461302  0.11058808    -0.01800
C1384       C  0.84852238  0.53170706  0.16106879     0.00800
C1385       C  0.87422417  0.02637620  0.20132628    -0.22100
C1386       C  0.90656698  0.02284953  0.17467637    -0.22300
C1387       C  0.89921984  0.52704748  0.11948989     0.00700
H1388       H  0.86924108  0.02074442  0.24428030     0.14500
H1389       H  0.93175831  0.01437218  0.19279169     0.14500
O1390       O  0.66897658  0.98425025  0.19120641    -0.76800
C1391       C  0.72986687  0.90092152  0.14793188     0.84300
O1392       O  0.72413237  0.94190109  0.36669661    -0.77900
O1393       O  0.82480520  0.93392793  0.23362803    -0.79400
O1394       O  0.79295601  0.53276439  0.20798123    -0.79200
O1395       O  0.70207013  0.53023215  0.18304395    -0.77800
Zn1396     Zn  0.69995474  0.95043016  0.23313100     1.55700
O1397       O  0.80283789  0.99243832  0.14710636    -0.79200
Cd1398     Cd  0.74334214  0.51825156  0.23691483     1.59700
Cd1399     Cd  0.76502805  0.96347001  0.32332443     1.59600
O1400       O  0.73744568  0.54152337  0.31147242    -0.79200
O1401       O  0.74627143  0.96981083  0.24699498    -1.89700
Cd1402     Cd  0.78113247  0.95328405  0.19196670     1.59900
O1403       O  0.77262600  0.50942353  0.36392000    -0.79200
O1404       O  0.75970124  0.91622042  0.14379347    -0.77800
C1405       C  0.69078342  0.93747647  0.35618955     0.84700
C1406       C  0.67411689  0.51340337  0.17166523     0.84400
O1407       O  0.70533138  0.90986542  0.18216793    -0.76800
C1408       C  0.81198320  0.51949726  0.17020760     0.85200
O1409       O  0.67759806  0.93933064  0.30762580    -0.76900
C1410       C  0.75612152  0.53708915  0.35506873     0.85300
C1411       C  0.83462206  0.92992788  0.28350970     0.85600
O1412       O  0.81395764  0.93682296  0.32413329    -0.79300
C1413       C  0.75382486  0.62633531  0.39853576     0.04800
C1414       C  0.77779445  0.62698544  0.44344273    -0.11300
C1415       C  0.79315499  0.59690762  0.46493074     0.02300
C1416       C  0.78526176  0.56674931  0.43636229    -0.09800
C1417       C  0.76011703  0.56611774  0.39291029     0.04800
C1418       C  0.74238083  0.59572156  0.37854177    -0.09300
H1419       H  0.78563773  0.65103697  0.45855801     0.10400
H1420       H  0.79968998  0.54386708  0.44523771     0.08000
H1421       H  0.72302390  0.59576161  0.34507729     0.07800
C1422       C  0.81925404  0.59683074  0.51350022     0.04800
C1423       C  0.82975053  0.56606168  0.03866820    -0.11300
C1424       C  0.85529486  0.56488263  0.08094896     0.02300
C1425       C  0.86931681  0.59453381  0.10076766    -0.09800
C1426       C  0.85788897  0.62561533  0.08116751     0.04800
C1427       C  0.83326531  0.62685834  0.03677959    -0.09300
H1428       H  0.81777087  0.54272392  0.52738133     0.10400
H1429       H  0.88769991  0.59342294  0.13539172     0.08000
H1430       H  0.82538928  0.65116384  0.52170966     0.07800
N1431       N  0.61899864  0.65224844  0.13312867    -0.01800
C1432       C  0.60944054  0.65787162  0.07946415     0.00800
C1433       C  0.63906037  0.65642150  0.04473766    -0.22100
C1434       C  0.66852195  0.65297805  0.07746568    -0.22300
C1435       C  0.65585020  0.65251647  0.13083038     0.00700
H1436       H  0.63969728  0.66212355  0.00115566     0.14500
H1437       H  0.69622664  0.65635772  0.06435835     0.14500
N1438       N  0.86929724  0.78899993  0.36443862    -0.01800
C1439       C  0.88309239  0.78257825  0.41541348     0.00800
C1440       C  0.85646651  0.78207397  0.45494499    -0.22100
C1441       C  0.82460185  0.78630568  0.42790786    -0.22300
C1442       C  0.83280969  0.78784608  0.37222727     0.00700
H1443       H  0.85953622  0.77495796  0.49772735     0.14500
H1444       H  0.79828353  0.78238501  0.44617256     0.14500
O1445       O  0.52915979  0.67249677  0.39669297    -0.76800
C1446       C  0.56284410  0.77475479  0.41595744     0.84300
O1447       O  0.55144942  0.68409168  0.09406058    -0.77900
O1448       O  0.99103383  0.78986000  0.05292548    -0.79400
O1449       O  0.91766987  0.73342176  0.42974099    -0.79200
O1450       O  0.97016533  0.66227833  0.40569820    -0.77800
Zn1451     Zn  0.54115461  0.70538483  0.45580554     1.55700
O1452       O  0.94437650  0.78235706  0.44187031    -0.79200
Cd1453     Cd  0.95335934  0.69775687  0.46326299     1.59700
Cd1454     Cd  0.00382261  0.71014752  0.07396387     1.59600
O1455       O  0.92399562  0.67477535  0.02728333    -0.79200
O1456       O  0.49783578  0.71983702  0.49259528    -1.89700
Cd1457     Cd  0.49260752  0.76837334  0.47846783     1.59900
O1458       O  0.96173941  0.68153469  0.09769221    -0.79200
O1459       O  0.53431910  0.78869875  0.43419663    -0.77800
C1460       C  0.57586770  0.67463162  0.06041537     0.84700
C1461       C  0.50108393  0.65619861  0.38401911     0.84400
O1462       O  0.56916519  0.74372760  0.42272803    -0.76800
C1463       C  0.91755020  0.76524996  0.42679521     0.85200
O1464       O  0.57356688  0.68134253  0.00920548    -0.76900
C1465       C  0.93213522  0.67112167  0.07803537     0.85300
C1466       C  0.99248833  0.78282024  0.10395663     0.85600
O1467       O  0.99792229  0.75320617  0.12136275    -0.79300
C1468       C  0.51014460  0.56577456  0.35730836     0.04800
C1469       C  0.49471424  0.59625652  0.37316557    -0.11300
C1470       C  0.50627685  0.62609619  0.35024220     0.02300
C1471       C  0.52997104  0.62557563  0.30500588    -0.09800
C1472       C  0.54350277  0.59512566  0.28319661     0.04800
C1473       C  0.53410952  0.56527863  0.31203775    -0.09300
H1474       H  0.47711361  0.59737930  0.40884713     0.10400
H1475       H  0.53820928  0.64932757  0.28889898     0.08000
H1476       H  0.54633270  0.54160107  0.30198629     0.07800
C1477       C  0.56861973  0.59462894  0.23319351     0.04800
C1478       C  0.58154264  0.62461518  0.20743676    -0.11300
C1479       C  0.60410302  0.62321834  0.16051649     0.02300
C1480       C  0.61461354  0.59213103  0.14070618    -0.09800
C1481       C  0.60333930  0.56255530  0.16477869     0.04800
C1482       C  0.57967018  0.56368259  0.20957343    -0.09300
H1483       H  0.57472843  0.64903293  0.22266874     0.10400
H1484       H  0.63188945  0.59084733  0.10470435     0.08000
H1485       H  0.56988029  0.54008144  0.22412529     0.07800
N1486       N  0.61344506  0.53195632  0.13790001    -0.01800
C1487       C  0.59858720  0.52774592  0.08761968     0.00800
C1488       C  0.62445763  0.02317398  0.04746347    -0.22100
C1489       C  0.65685869  0.02129508  0.07429410    -0.22300
C1490       C  0.64921994  0.52584153  0.12935407     0.00700
H1491       H  0.61978958  0.01754098  0.00454801     0.14500
H1492       H  0.68247565  0.01370502  0.05650698     0.14500
N1493       N  0.88951956  0.91103557  0.33769603    -0.01800
C1494       C  0.91775225  0.93201518  0.34636824     0.00800
C1495       C  0.92277480  0.95400970  0.30343654    -0.22100
C1496       C  0.89515877  0.94891325  0.26832634    -0.22300
C1497       C  0.87353449  0.92523852  0.29248002     0.00700
H1498       H  0.94302340  0.97314309  0.29999087     0.14500
H1499       H  0.88867867  0.96402744  0.23286836     0.14500
O1500       O  0.95309136  0.91063640  0.06973335    -0.76800
C1501       C  0.92394755  0.51404470  0.07751466     0.84300
O1502       O  0.97458674  0.93804102  0.38515032    -0.77900
O1503       O  0.48710171  0.54123176  0.43885712    -0.79400
O1504       O  0.55047542  0.99133072  0.10367397    -0.79200
O1505       O  0.50810424  0.91544273  0.10634231    -0.77800
Zn1506     Zn  0.94842974  0.95051464  0.01698138     1.55700
O1507       O  0.54352477  0.53064505  0.03991326    -0.79200
Cd1508     Cd  0.52992943  0.95236651  0.05833459     1.59700
Cd1509     Cd  0.51430203  0.96227718  0.42709440     1.59600
O1510       O  0.57446768  0.93356326  0.51789190    -0.79200
O1511       O  0.99523954  0.96896092  0.50297388    -1.89700
Cd1512     Cd  0.99331283  0.51735621  0.01277084     1.59900
O1513       O  0.56423465  0.93721919  0.42734473    -0.79200
O1514       O  0.95284275  0.52982551  0.06731133    -0.77800
C1515       C  0.94102508  0.93389041  0.39482711     0.84700
C1516       C  0.97776904  0.90097961  0.10317844     0.84400
O1517       O  0.91762337  0.98540381  0.05710056    -0.76800
C1518       C  0.56151622  0.51724012  0.07874139     0.85200
O1519       O  0.92691535  0.93764019  0.44257443    -0.76900
C1520       C  0.58475318  0.93022600  0.46809111     0.85300
C1521       C  0.50526201  0.53654919  0.39488325     0.85600
O1522       O  0.52072310  0.50844961  0.38546894    -0.79300
C1523       C  0.92653840  0.83789931  0.26395051     0.04800
C1524       C  0.90743078  0.81096751  0.28753927    -0.11300
C1525       C  0.88473203  0.81651708  0.33384770     0.02300
C1526       C  0.87850182  0.84981345  0.35208759    -0.09800
C1527       C  0.89883846  0.87606960  0.33030844     0.04800
C1528       C  0.92543032  0.86838907  0.29139260    -0.09300
H1529       H  0.90973925  0.78622383  0.27032245     0.10400
H1530       H  0.85869289  0.85496729  0.38384937     0.08000
H1531       H  0.94289029  0.88818800  0.27785932     0.07800
C1532       C  0.98552572  0.81094250  0.14118752     0.04800
C1533       C  0.96375054  0.80833857  0.18879450    -0.11300
C1534       C  0.94660647  0.83723143  0.21002677     0.05500
C1535       C  0.94892973  0.86731655  0.17879235    -0.09800
C1536       C  0.97314708  0.87011220  0.13506875     0.04800
C1537       C  0.99305038  0.84242423  0.11924299    -0.09300
H1538       H  0.95921534  0.78421156  0.20742197     0.10400
H1539       H  0.93279458  0.88908235  0.18918857     0.08000
H1540       H  0.51113042  0.84470947  0.08421534     0.07800
N1541       N  0.62284334  0.79233909  0.88200772    -0.01800
C1542       C  0.63363310  0.78649761  0.82927239     0.00800
C1543       C  0.60503470  0.78976857  0.79302063    -0.22100
C1544       C  0.57491668  0.79447517  0.82432535    -0.22300
C1545       C  0.58610839  0.79343062  0.87846676     0.00700
H1546       H  0.60514186  0.78421731  0.74945622     0.14500
H1547       H  0.54746286  0.79204584  0.80962889     0.14500
N1548       N  0.86987110  0.65478671  0.61093706    -0.01800
C1549       C  0.85655356  0.65857008  0.66322358     0.00800
C1550       C  0.88358660  0.65889064  0.70204845    -0.22100
C1551       C  0.91517746  0.65805860  0.67397298    -0.22300
C1552       C  0.90631301  0.65765314  0.61863177     0.00700
H1553       H  0.88062279  0.66418607  0.74552671     0.14500
H1554       H  0.94152538  0.66215852  0.69184504     0.14500
O1555       O  0.71475321  0.76479363  0.65034203    -0.76800
C1556       C  0.67833313  0.66842094  0.67181595     0.84300
O1557       O  0.68896291  0.75582068  0.84793500    -0.77900
O1558       O  0.75006806  0.64820621  0.80962097    -0.79400
O1559       O  0.82312354  0.70722129  0.68347714    -0.79200
O1560       O  0.77277314  0.77710846  0.66295052    -0.77800
Zn1561     Zn  0.70196433  0.73517826  0.71247697     1.55700
O1562       O  0.79622898  0.65820489  0.69467176    -0.79200
Cd1563     Cd  0.78859588  0.74201523  0.72039932     1.59700
Cd1564     Cd  0.73747977  0.72920611  0.83104459     1.59600
O1565       O  0.81675872  0.76654179  0.78319956    -0.79200
O1566       O  0.74432063  0.71973258  0.75009743    -1.89700
Cd1567     Cd  0.74879900  0.67132240  0.73506344     1.59900
O1568       O  0.77878947  0.75986817  0.85375124    -0.79200
O1569       O  0.70675360  0.65351818  0.68860266    -0.77800
C1570       C  0.66666262  0.76779704  0.81273399     0.84700
C1571       C  0.74251566  0.78172668  0.63899842     0.84400
O1572       O  0.67204577  0.69893258  0.68170006    -0.76800
C1573       C  0.82261149  0.67558264  0.67806584     0.85200
O1574       O  0.67040707  0.76203719  0.76164980    -0.76900
C1575       C  0.80789361  0.77141828  0.83338432     0.85300
C1576       C  0.74847798  0.65508101  0.86077206     0.85600
O1577       O  0.74348363  0.68487115  0.87798432    -0.79300
C1578       C  0.68077537  0.84105153  0.48176839     0.04800
C1579       C  0.67866054  0.87185152  0.95525030    -0.11300
C1580       C  0.65150547  0.87926872  0.91710985     0.02300
C1581       C  0.63260115  0.85288283  0.89389754    -0.09800
C1582       C  0.63997091  0.81951353  0.91082300     0.04800
C1583       C  0.66258161  0.81390164  0.95720882    -0.09300
H1584       H  0.69535238  0.89197711  0.46925809     0.10400
H1585       H  0.61227993  0.85816264  0.86296197     0.08000
H1586       H  0.66507623  0.78901622  0.47411114     0.07800
C1587       C  0.72529113  0.87048927  0.61504070     0.04800
C1588       C  0.70325150  0.86954124  0.56829757    -0.11300
C1589       C  0.70045946  0.84001107  0.53600995     0.02300
C1590       C  0.71624167  0.81055735  0.55691802    -0.09800
C1591       C  0.73683829  0.81143256  0.60552635     0.04800
C1592       C  0.74314521  0.84164538  0.63192434    -0.09300
H1593       H  0.68852345  0.89208214  0.55751283     0.10400
H1594       H  0.71207673  0.78696192  0.53665921     0.08000
H1595       H  0.75872850  0.84204660  0.66973103     0.07800
N1596       N  0.63974075  0.91371437  0.91251703    -0.01800
C1597       C  0.66650964  0.93611837  0.90361835     0.00800
C1598       C  0.67155692  0.95672936  0.94808923    -0.22100
C1599       C  0.64514588  0.94899292  0.98447070    -0.22300
C1600       C  0.62379037  0.92569810  0.95927962     0.00700
H1601       H  0.69165055  0.97587744  0.95271833     0.14500
H1602       H  0.63927187  0.96178498  0.02232207     0.14500
N1603       N  0.86382323  0.53461321  0.61058809    -0.01800
C1604       C  0.84852216  0.53170716  0.66106869     0.00800
C1605       C  0.87422385  0.02637606  0.70132624    -0.22100
C1606       C  0.90656666  0.02284944  0.67467637    -0.22300
C1607       C  0.89921968  0.52704754  0.61948992     0.00700
H1608       H  0.86924063  0.02074412  0.74428019     0.14500
H1609       H  0.93175830  0.01437186  0.69279201     0.14500
O1610       O  0.66897639  0.98425048  0.69120656    -0.76800
C1611       C  0.72986713  0.90092189  0.64793159     0.84300
O1612       O  0.72413268  0.94190131  0.86669617    -0.77900
O1613       O  0.82480559  0.93392885  0.73362752    -0.79400
O1614       O  0.79295585  0.53276463  0.70798114    -0.79200
O1615       O  0.70206991  0.53023224  0.68304358    -0.77800
Zn1616     Zn  0.69995479  0.95043040  0.73313095     1.55700
O1617       O  0.80283733  0.99243903  0.64710570    -0.79200
Cd1618     Cd  0.74334193  0.51825197  0.73691455     1.59700
Cd1619     Cd  0.76502816  0.96347024  0.82332374     1.59600
O1620       O  0.73744528  0.54152354  0.81147242    -0.79200
O1621       O  0.74627145  0.96981111  0.74699456    -1.89700
Cd1622     Cd  0.78113256  0.95328456  0.69196630     1.59900
O1623       O  0.77262611  0.50942375  0.86391931    -0.79200
O1624       O  0.75970142  0.91622090  0.64379319    -0.77800
C1625       C  0.69078375  0.93747648  0.85618933     0.84700
C1626       C  0.67411660  0.51340350  0.67166517     0.84400
O1627       O  0.70533153  0.90986578  0.68216751    -0.76800
C1628       C  0.81198288  0.51949758  0.67020726     0.85200
O1629       O  0.67759823  0.93933062  0.80762570    -0.76900
C1630       C  0.75612140  0.53708929  0.85506847     0.85300
C1631       C  0.83462237  0.92992848  0.78350918     0.85600
O1632       O  0.81395776  0.93682318  0.82413272    -0.79300
C1633       C  0.75382499  0.62633541  0.89853550     0.04800
C1634       C  0.77779456  0.62698538  0.94344250    -0.11300
C1635       C  0.79315503  0.59690751  0.96493052     0.02300
C1636       C  0.78526177  0.56674929  0.93636200    -0.09800
C1637       C  0.76011699  0.56611781  0.89291007     0.04800
C1638       C  0.74238085  0.59572167  0.87854167    -0.09300
H1639       H  0.78563798  0.65103710  0.95855799     0.10400
H1640       H  0.79969000  0.54386697  0.94523732     0.08000
H1641       H  0.72302366  0.59576178  0.84507691     0.07800
C1642       C  0.81925409  0.59683053  0.01349998     0.04800
C1643       C  0.82975055  0.56606207  0.53866850    -0.11300
C1644       C  0.85529487  0.56488283  0.58094904     0.02300
C1645       C  0.86931689  0.59453400  0.60076771    -0.09800
C1646       C  0.85788905  0.62561551  0.58116773     0.04800
C1647       C  0.83326528  0.62685863  0.53677982    -0.09300
H1648       H  0.81777136  0.54272434  0.02738142     0.10400
H1649       H  0.88770015  0.59342306  0.63539201     0.08000
H1650       H  0.82538922  0.65116387  0.02170921     0.07800
N1651       N  0.61899883  0.65224869  0.63312865    -0.01800
C1652       C  0.60944070  0.65787184  0.57946416     0.00800
C1653       C  0.63906044  0.65642153  0.54473737    -0.22100
C1654       C  0.66852211  0.65297804  0.57746546    -0.22300
C1655       C  0.65585040  0.65251662  0.63083026     0.00700
H1656       H  0.63969729  0.66212334  0.50115640     0.14500
H1657       H  0.69622638  0.65635754  0.56435808     0.14500
N1658       N  0.86929745  0.78900053  0.86443912    -0.01800
C1659       C  0.88309260  0.78257902  0.91541400     0.00800
C1660       C  0.85646669  0.78207472  0.95494555    -0.22100
C1661       C  0.82460209  0.78630616  0.92790814    -0.22300
C1662       C  0.83280991  0.78784648  0.87222762     0.00700
H1663       H  0.85953634  0.77495885  0.99772752     0.14500
H1664       H  0.79828346  0.78238533  0.94617299     0.14500
O1665       O  0.52915958  0.67249676  0.89669315    -0.76800
C1666       C  0.56284427  0.77475461  0.91595707     0.84300
O1667       O  0.55144959  0.68409198  0.59406052    -0.77900
O1668       O  0.99103283  0.78985993  0.55292505    -0.79400
O1669       O  0.91766996  0.73342239  0.92974077    -0.79200
O1670       O  0.97016501  0.66227856  0.90569791    -0.77800
Zn1671     Zn  0.54115465  0.70538481  0.95580557     1.55700
O1672       O  0.94437663  0.78235760  0.94187128    -0.79200
Cd1673     Cd  0.95335915  0.69775715  0.96326295     1.59700
Cd1674     Cd  0.00382266  0.71014757  0.57396392     1.59600
O1675       O  0.92399588  0.67477508  0.52728347    -0.79200
O1676       O  0.49783585  0.71983708  0.99259530    -1.89700
Cd1677     Cd  0.49260788  0.76837354  0.97846824     1.59900
O1678       O  0.96173959  0.68153466  0.59769236    -0.79200
O1679       O  0.53431945  0.78869871  0.93419663    -0.77800
C1680       C  0.57586785  0.67463182  0.56041530     0.84700
C1681       C  0.50108367  0.65619872  0.88401906     0.84400
O1682       O  0.56916525  0.74372740  0.92272765    -0.76800
C1683       C  0.91755034  0.76525062  0.92679568     0.85200
O1684       O  0.57356696  0.68134256  0.50920537    -0.76900
C1685       C  0.93213543  0.67112153  0.57803554     0.85300
C1686       C  0.99248740  0.78282039  0.60395628     0.85600
O1687       O  0.99792183  0.75320642  0.62136267    -0.79300
C1688       C  0.51014470  0.56577473  0.85730843     0.04800
C1689       C  0.49471405  0.59625660  0.87316536    -0.11300
C1690       C  0.50627667  0.62609632  0.85024211     0.02300
C1691       C  0.52997104  0.62557574  0.80500602    -0.09800
C1692       C  0.54350301  0.59512588  0.78319690     0.04800
C1693       C  0.53410990  0.56527876  0.81203806    -0.09300
H1694       H  0.47711323  0.59737933  0.90884684     0.10400
H1695       H  0.53820939  0.64932807  0.78889873     0.08000
H1696       H  0.54633302  0.54160182  0.80198719     0.07800
C1697       C  0.56862002  0.59462919  0.73319381     0.04800
C1698       C  0.58154300  0.62461540  0.70743706    -0.11300
C1699       C  0.60410314  0.62321859  0.66051649     0.02300
C1700       C  0.61461330  0.59213126  0.64070585    -0.09800
C1701       C  0.60333908  0.56255554  0.66477841     0.04800
C1702       C  0.57967025  0.56368285  0.70957353    -0.09300
H1703       H  0.57472896  0.64903333  0.72266952     0.10400
H1704       H  0.63188914  0.59084753  0.60470364     0.08000
H1705       H  0.56988038  0.54008178  0.72412535     0.07800
N1706       N  0.61344475  0.53195651  0.63789983    -0.01800
C1707       C  0.59858689  0.52774594  0.58761950     0.00800
C1708       C  0.62445734  0.02317401  0.54746339    -0.22100
C1709       C  0.65685829  0.02129508  0.57429407    -0.22300
C1710       C  0.64921965  0.52584165  0.62935396     0.00700
H1711       H  0.61978925  0.01754093  0.50454759     0.14500
H1712       H  0.68247581  0.01370484  0.55650661     0.14500
N1713       N  0.88951969  0.91103621  0.83769603    -0.01800
C1714       C  0.91775227  0.93201586  0.84636838     0.00800
C1715       C  0.92277511  0.95401034  0.80343656    -0.22100
C1716       C  0.89515931  0.94891351  0.76832608    -0.22300
C1717       C  0.87353482  0.92523899  0.79247967     0.00700
H1718       H  0.94302335  0.97314331  0.79999101     0.14500
H1719       H  0.88867936  0.96402779  0.73286696     0.14500
O1720       O  0.95309089  0.91063683  0.56973319    -0.76800
C1721       C  0.92394737  0.51404490  0.57751454     0.84300
O1722       O  0.97458678  0.93804148  0.88515032    -0.77900
O1723       O  0.48710201  0.54123185  0.93885722    -0.79400
O1724       O  0.55047474  0.99133125  0.60367406    -0.79200
O1725       O  0.50810375  0.91544311  0.60634229    -0.77800
Zn1726     Zn  0.94842931  0.95051488  0.51698103     1.55700
O1727       O  0.54352465  0.53064508  0.53991256    -0.79200
Cd1728     Cd  0.52992896  0.95236695  0.55833467     1.59700
Cd1729     Cd  0.51430219  0.96227723  0.92709451     1.59600
O1730       O  0.57446808  0.93356256  0.01789180    -0.79200
O1731       O  0.99523993  0.96896086  0.00297413    -1.89700
Cd1732     Cd  0.99331262  0.51735623  0.51277080     1.59900
O1733       O  0.56423497  0.93721941  0.92734473    -0.79200
O1734       O  0.95284275  0.52982554  0.56731159    -0.77800
C1735       C  0.94102515  0.93389084  0.89482717     0.84700
C1736       C  0.97776850  0.90098006  0.60317844     0.84400
O1737       O  0.91762287  0.98540405  0.55709989    -0.76800
C1738       C  0.56151583  0.51724034  0.57874112     0.85200
O1739       O  0.92691550  0.93764024  0.94257463    -0.76900
C1740       C  0.58475353  0.93022577  0.96809090     0.85300
C1741       C  0.50526230  0.53654935  0.89488333     0.85600
O1742       O  0.52072344  0.50844981  0.88546900    -0.79300
C1743       C  0.92653881  0.83789986  0.76395144     0.04800
C1744       C  0.90743103  0.81096817  0.78754006    -0.11300
C1745       C  0.88473218  0.81651770  0.83384821     0.02300
C1746       C  0.87850173  0.84981414  0.85208816    -0.09800
C1747       C  0.89883867  0.87607020  0.83030896     0.04800
C1748       C  0.92543087  0.86838956  0.79139376    -0.09300
H1749       H  0.90973948  0.78622422  0.77032299     0.10400
H1750       H  0.85869336  0.85496784  0.88384855     0.08000
H1751       H  0.94289100  0.88818834  0.77786074     0.07800
C1752       C  0.98552466  0.81094283  0.64118686     0.04800
C1753       C  0.96375010  0.80833903  0.68879455    -0.11300
C1754       C  0.94660658  0.83723201  0.71002745     0.05500
C1755       C  0.94892984  0.86731722  0.67879325    -0.09800
C1756       C  0.97314650  0.87011266  0.63506869     0.04800
C1757       C  0.99304906  0.84242450  0.61924195    -0.09300
H1758       H  0.95921501  0.78421208  0.70742214     0.10400
H1759       H  0.93279520  0.88908305  0.68919008     0.08000
H1760       H  0.51112871  0.84470964  0.58421330     0.07800
loop_ 
_geom_bond_atom_site_label_1 
_geom_bond_atom_site_label_2 
_geom_bond_distance 
_geom_bond_site_symmetry_2 
_ccdc_geom_bond_type 
N1            C5   1.363       .  A
N1            C2   1.362       .  A
N1           C42   1.452       .  S
C2            C3   1.383       .  A
C2           C30   1.483       .  S
C3            C4   1.361       .  A
C3            H6   1.082       .  S
C4            C5   1.380       .  A
C4            H7   1.084       .  S
C5          C126   1.463       .  S
N8           C12   1.369       .  A
N8            C9   1.370       .  A
N8          C106   1.453       .  S
C9           C10   1.377       .  A
C9           C33   1.468       .  S
C10          C11   1.353       .  A
C10          H13   1.083       .  S
C11          C12   1.385       .  A
C11          H14   1.083       .  S
C12         C145   1.478       .  S
O15          C31   1.269       .  A
O15         Zn21   1.978       .  S
C16         C115   1.454       .  S
C16          O32   1.268       .  A
C16          O29   1.271       .  A
O17          C30   1.278       .  A
O17         Cd24   2.119       .  S
O18          C36   1.275       .  A
O18         Cd27   2.032       .  S
O19          C33   1.278       .  A
O19         Cd23   2.086       .  S
O20          C31   1.274       .  A
O20         Cd23   2.059       .  S
Zn21         O32   1.989       .  S
Zn21         O34   1.982       .  S
Zn21         O26   1.912       .  S
O22          C33   1.272       .  A
O22         Cd27   2.074       .  S
Cd23         O25   2.104       .  S
Cd23         O26   2.009       .  S
Cd24         O28   2.053       .  S
Cd24         O37   2.119       .  S
Cd24         O26   2.020       .  S
O25          C35   1.277       .  A
O26         Cd27   1.984       .  S
Cd27         O29   2.061       .  S
O28          C35   1.277       .  A
C30          O34   1.270       .  A
C31          C51   1.454       .  S
C35         C122   1.483       .  S
C36          C93   1.482       .  S
C36          O37   1.280       .  A
C38         C259   1.393       .  A
C38         C263   1.422       .  A
C38          C49   1.507   1_556  S
C39          C40   1.397       .  A
C39         C258   1.393       .  A
C39         H264   1.080       .  S
C40          N56   1.448       .  S
C40          C41   1.398       .  A
C41          C42   1.423       .  A
C41          H45   1.083       .  S
C42          C43   1.420       .  A
C43         C258   1.422       .  A
C43         H266   1.081       .  S
H44         C259   1.080       .  S
H46         C263   1.081       .  S
C47          C48   1.400       .  A
C47          C52   1.387       .  A
C47          C71   1.474       .  S
C48          C49   1.429       .  A
C48          H53   1.082       .  S
C49          C50   1.406       .  A
C50          C51   1.408       .  A
C50          H54   1.082       .  S
C51          C52   1.397       .  A
C52          H55   1.086       .  S
N56          C60   1.366       .  A
N56          C57   1.363       .  A
C57          C58   1.378       .  A
C57          C85   1.461       .  S
C58          C59   1.355       .  A
C58          H61   1.083       .  S
C59          C60   1.378       .  A
C59          H62   1.076       .  S
C60         C200   1.470       .  S
N63          C67   1.359       .  A
N63          C64   1.355       .  A
N63         C104   1.442       .  S
C64         C505   1.380       .  A
C64          C88   1.461       .  S
C65          C66   1.367       .  A
C65         C504   1.380       .  A
C65          H68   1.083       .  S
C66         C507   1.378       .  A
C66          H69   1.082       .  S
C67         C506   1.378       .  A
C67         C181   1.463       .  S
O70         C526   1.277       .  A
O70         Zn76   2.037       .  S
C71          O87   1.280       .  A
C71          O84   1.274       .  A
O72          C85   1.276       .  A
O72         Cd79   2.043       .  S
O73          C91   1.275       .  A
O73         Cd82   2.052       .  S
O74          C88   1.271       .  A
O74         Cd78   2.056       .  S
O75          C86   1.274       .  A
O75         Cd78   2.064       .  S
Zn76         O87   2.057       .  S
Zn76         O89   2.039       .  S
Zn76         O81   1.923       .  S
O77         C528   1.275       .  A
O77         Cd82   2.078       .  S
Cd78         O80   2.052       .  S
Cd78        O521   1.960   1_545  S
Cd79         O92   2.092       .  S
Cd79        O523   2.118       .  S
Cd79         O81   1.995       .  S
O80          C90   1.276       .  A
O81         Cd82   1.968       .  S
O81        Cd518   1.960       .  S
Cd82         O84   2.064       .  S
O83          C90   1.278       .  A
O83        Cd519   2.118   1_545  S
C85          O89   1.279       .  A
C86         C170   1.464       .  S
C86         O510   1.277   1_545  A
C88         O517   1.275   1_545  A
C90          C97   1.496       .  S
C91         C177   1.467       .  S
C91          O92   1.277       .  A
C93          C94   1.408       .  A
C93          C98   1.394       .  A
C94          C95   1.425       .  A
C94          H99   1.078       .  S
C95          C96   1.432       .  A
C95         C102   1.526       .  S
C96          C97   1.409       .  A
C96         H100   1.078       .  S
C97          C98   1.394       .  A
C98         H101   1.085       .  S
C102        C323   1.426       .  A
C102        C327   1.437       .  A
C103        C104   1.398       .  A
C103        C322   1.426       .  A
C103        H328   1.078       .  S
C104        C105   1.393       .  A
C105        C106   1.394       .  A
C105        H109   1.083       .  S
C106        C107   1.414       .  A
C107        C322   1.437       .  A
C107        H330   1.078       .  S
H108        C323   1.078       .  S
H110        C327   1.078       .  S
N111        C115   1.366       .  A
N111        C112   1.368       .  A
N111        C159   1.454       .  S
C112        C113   1.383       .  A
C112        C140   1.480       .  S
C113        C114   1.356       .  A
C113        H116   1.083       .  S
C114        C115   1.378       .  A
C114        H117   1.084       .  S
N118        C122   1.365       .  A
N118        C119   1.363       .  A
N118        C205   1.451       .  S
C119        C120   1.375       .  A
C119        C143   1.472       .  S
C120        C121   1.360       .  A
C120        H123   1.082       .  S
C121        C122   1.387       .  A
C121        H124   1.083       .  S
O125        C141   1.274       .  A
O125       Zn131   2.009       .  S
C126        O142   1.274       .  A
C126        O139   1.269       .  A
O127        C140   1.273       .  A
O127      Cd1014   2.096       .  S
O128        C146   1.271       .  A
O128      Cd1237   2.008   1_554  S
O129        C143   1.279       .  A
O129       Cd133   2.099       .  S
O130       C1021   1.281       .  A
O130       Cd133   2.089       .  S
Zn131       O142   2.029       .  S
Zn131       O364   2.005       .  S
Zn131       O136   1.920   1_455  S
O132        C143   1.270       .  A
O132      Cd1017   2.067       .  S
Cd133       O355   2.112       .  S
Cd133      O1016   2.013       .  S
Cd134       O138   2.029       .  S
Cd134       O147   2.090       .  S
Cd134      O1007   2.096       .  S
Cd134      O1236   2.025   1_554  S
O135        C145   1.277       .  A
O135       Cd353   2.112   1_554  S
O136       Cd137   1.984       .  S
O136      Cd1013   2.013       .  S
O136      Cd1234   2.025   1_655  S
Cd137       O139   2.056   1_655  S
Cd137      O1228   2.008       .  S
Cd137      O1012   2.067       .  S
O138        C145   1.272       .  A
C140        O144   1.275       .  A
C141        C150   1.474       .  S
C141       O1010   1.281   1_455  A
O144       Zn351   2.005   1_554  S
C146        C212   1.470       .  S
C146        O147   1.274       .  A
C148        C149   1.399   1_455  A
C148        C153   1.412       .  A
C148        C201   1.496       .  S
C149        C150   1.391   1_655  A
C149        H154   1.084       .  S
C150        C151   1.405       .  A
C151        C152   1.420       .  A
C151        H155   1.076       .  S
C152        C153   1.432       .  A
C152        C157   1.529       .  S
C153        H156   1.076       .  S
C157        C158   1.441       .  A
C157        C162   1.426       .  A
C158        C159   1.413       .  A
C158        H163   1.076       .  S
C159        C160   1.390       .  A
C160        C161   1.390       .  A
C160        H164   1.084       .  S
C161        N166   1.439       .  S
C161        C162   1.397       .  A
C162        H165   1.077       .  S
N166        C170   1.360       .  A
N166        C167   1.353       .  A
C167        C608   1.377       .  A
C167        C198   1.458       .  S
C168        C169   1.367       .  A
C168        C607   1.377       .  A
C168        H171   1.082       .  S
C169        C610   1.379       .  A
C169        H172   1.083       .  S
C170        C609   1.379       .  A
N173        C177   1.368       .  A
N173        C174   1.368       .  A
N173        C207   1.453       .  S
C174        C175   1.377       .  A
C174        C195   1.463       .  S
C175        C176   1.351       .  A
C175        H178   1.083       .  S
C176        C177   1.379       .  A
C176        H179   1.077       .  S
O180        C196   1.279       .  A
O180       Zn186   2.052       .  S
C181        O194   1.274       .  A
C181        O637   1.278   1_545  A
O182        C195   1.277       .  A
O182      Cd1069   2.048       .  S
O183        C201   1.275   1_655  A
O183      Cd1292   2.044       .  S
O184        C638   1.273       .  A
O184       Cd188   2.070       .  S
O185       C1076   1.273   1_455  A
O185       Cd188   2.055       .  S
Zn186       O197   2.045       .  S
Zn186       O419   2.047   1_554  S
Zn186       O411   1.922       .  S
O187        C198   1.270       .  A
O187      Cd1072   2.051   1_455  S
Cd188       O410   2.055       .  S
Cd188      O1291   1.969   1_455  S
Cd189       O193   2.094       .  S
Cd189      O1062   2.048   1_455  S
Cd189       O642   2.123       .  S
Cd189      O1071   1.991   1_455  S
O190        C200   1.275       .  A
O190       Cd408   2.055       .  S
O191       Zn406   1.922       .  S
O191      Cd1288   1.969       .  S
O191      Cd1069   1.991       .  S
O191       Cd852   1.959       .  S
Cd192       O194   2.057       .  S
Cd192      O1283   2.044   1_554  S
Cd192      O1067   2.051       .  S
Cd192       O851   1.959   1_545  S
O193        C200   1.277       .  A
C195        O199   1.280       .  A
C196        C216   1.470       .  S
C196       O1065   1.273       .  A
O197        C621   1.278       .  A
C198        O624   1.273   1_545  A
O199       Zn406   2.047       .  S
C201        O202   1.280       .  A
O202       Cd629   2.123   1_545  S
C203        C204   1.418       .  A
C203        C208   1.396       .  A
C203        C214   1.505       .  S
C204        C205   1.420       .  A
C204        H209   1.082       .  S
C205        C206   1.426       .  A
C206        C207   1.404       .  A
C206        H210   1.083       .  S
C207        C208   1.397       .  A
C208        H211   1.080       .  S
C212        C213   1.413       .  A
C212        C217   1.400       .  A
C213        C214   1.414       .  A
C213        H218   1.082       .  S
C214        C215   1.427       .  A
C215        C216   1.394       .  A
C215        H219   1.083       .  S
C216        C217   1.382       .  A
C217       H1100   1.086       .  S
H220       C1097   1.086   1_455  S
N221        C225   1.363       .  A
N221        C222   1.362       .  A
N221        C262   1.452       .  S
C222        C223   1.383       .  A
C222        C250   1.483       .  S
C223        C224   1.361       .  A
C223        H226   1.082       .  S
C224        C225   1.380       .  A
C224        H227   1.084       .  S
C225        C346   1.463       .  S
N228        C232   1.369       .  A
N228        C229   1.370       .  A
N228        C326   1.453       .  S
C229        C230   1.377       .  A
C229        C253   1.468       .  S
C230        C231   1.353       .  A
C230        H233   1.083       .  S
C231        C232   1.385       .  A
C231        H234   1.083       .  S
C232        C365   1.478       .  S
O235        C251   1.269       .  A
O235       Zn241   1.978       .  S
C236        C335   1.454       .  S
C236        O252   1.268       .  A
C236        O249   1.271       .  A
O237        C250   1.278       .  A
O237       Cd244   2.119       .  S
O238        C256   1.275       .  A
O238       Cd247   2.032       .  S
O239        C253   1.278       .  A
O239       Cd243   2.086       .  S
O240        C251   1.274       .  A
O240       Cd243   2.059       .  S
Zn241       O252   1.989       .  S
Zn241       O254   1.982       .  S
Zn241       O246   1.912       .  S
O242        C253   1.272       .  A
O242       Cd247   2.074       .  S
Cd243       O245   2.104       .  S
Cd243       O246   2.009       .  S
Cd244       O248   2.053       .  S
Cd244       O257   2.119       .  S
Cd244       O246   2.020       .  S
O245        C255   1.277       .  A
O246       Cd247   1.984       .  S
Cd247       O249   2.061       .  S
O248        C255   1.277       .  A
C250        O254   1.270       .  A
C251        C271   1.454       .  S
C255        C342   1.483       .  S
C256        C313   1.482       .  S
C256        O257   1.280       .  A
C258        C269   1.507       .  S
C259        C260   1.397       .  A
C260        N276   1.448       .  S
C260        C261   1.398       .  A
C261        C262   1.423       .  A
C261        H265   1.083       .  S
C262        C263   1.420       .  A
C267        C268   1.400       .  A
C267        C272   1.387       .  A
C267        C291   1.474       .  S
C268        C269   1.429       .  A
C268        H273   1.082       .  S
C269        C270   1.406       .  A
C270        C271   1.408       .  A
C270        H274   1.082       .  S
C271        C272   1.397       .  A
C272        H275   1.086       .  S
N276        C280   1.366       .  A
N276        C277   1.363       .  A
C277        C278   1.378       .  A
C277        C305   1.461       .  S
C278        C279   1.355       .  A
C278        H281   1.083       .  S
C279        C280   1.378       .  A
C279        H282   1.076   1_556  S
C280        C420   1.470       .  S
N283        C287   1.359       .  A
N283        C284   1.355       .  A
N283        C324   1.442       .  S
C284        C725   1.380       .  A
C284        C308   1.461       .  S
C285        C724   1.380       .  A
C285        C286   1.367       .  A
C285        H288   1.083       .  S
C286        C727   1.378       .  A
C286        H289   1.082       .  S
C287        C726   1.378       .  A
C287        C401   1.463       .  S
O290        C746   1.277       .  A
O290       Zn296   2.037       .  S
C291        O307   1.280       .  A
C291        O304   1.274       .  A
O292        C305   1.276       .  A
O292       Cd299   2.043       .  S
O293        C311   1.275       .  A
O293       Cd302   2.052       .  S
O294        C308   1.271       .  A
O294       Cd298   2.056       .  S
O295        C306   1.274       .  A
O295       Cd298   2.064       .  S
Zn296       O307   2.057       .  S
Zn296       O309   2.039       .  S
Zn296       O301   1.923       .  S
O297        C748   1.275       .  A
O297       Cd302   2.078       .  S
Cd298       O300   2.052       .  S
Cd298       O741   1.960   1_545  S
Cd299       O743   2.118       .  S
Cd299       O312   2.092       .  S
Cd299       O301   1.995       .  S
O300        C310   1.276       .  A
O301       Cd738   1.960       .  S
O301       Cd302   1.968       .  S
Cd302       O304   2.064       .  S
O303        C310   1.278       .  A
O303       Cd739   2.118   1_545  S
C305        O309   1.279       .  A
C306        C390   1.464       .  S
C306        O730   1.277   1_545  A
C308        O737   1.275   1_545  A
C310        C317   1.496       .  S
C311        C397   1.467       .  S
C311        O312   1.277       .  A
C313        C314   1.408       .  A
C313        C318   1.394       .  A
C314        C315   1.425       .  A
C314        H319   1.078       .  S
C315        C316   1.432       .  A
C315        C322   1.526   1_556  S
C316        C317   1.409       .  A
C316        H320   1.078       .  S
C317        C318   1.394       .  A
C318        H321   1.085       .  S
C323        C324   1.398       .  A
C324        C325   1.393       .  A
C325        C326   1.394       .  A
C325        H329   1.083       .  S
C326        C327   1.414       .  A
N331        C335   1.366       .  A
N331        C332   1.368       .  A
N331        C379   1.454       .  S
C332        C333   1.383       .  A
C332        C360   1.480       .  S
C333        C334   1.356       .  A
C333        H336   1.082       .  S
C334        C335   1.378       .  A
C334        H337   1.084       .  S
N338        C342   1.365       .  A
N338        C339   1.363       .  A
N338        C425   1.451       .  S
C339        C340   1.375       .  A
C339        C363   1.472       .  S
C340        C341   1.360       .  A
C340        H343   1.082       .  S
C341        C342   1.387       .  A
C341        H344   1.083       .  S
O345        C361   1.274       .  A
O345       Zn351   2.009       .  S
C346        O362   1.274       .  A
C346        O359   1.269       .  A
O347        C360   1.273       .  A
O347      Cd1234   2.096       .  S
O348        C366   1.271       .  A
O348      Cd1017   2.008       .  S
O349        C363   1.279       .  A
O349       Cd353   2.099       .  S
O350       C1241   1.281       .  A
O350       Cd353   2.089       .  S
Zn351       O362   2.029       .  S
Zn351       O356   1.920   1_455  S
O352        C363   1.270       .  A
O352      Cd1237   2.067       .  S
Cd353      O1236   2.013       .  S
Cd354      O1227   2.096       .  S
Cd354       O358   2.029       .  S
Cd354       O367   2.090       .  S
Cd354      O1016   2.025       .  S
O355        C365   1.277       .  A
O356      Cd1233   2.013       .  S
O356      Cd1014   2.025   1_656  S
O356       Cd357   1.984       .  S
Cd357      O1008   2.008   1_556  S
Cd357      O1232   2.067       .  S
Cd357       O359   2.056   1_655  S
O358        C365   1.272       .  A
C360        O364   1.275       .  A
C361        C370   1.474       .  S
C361       O1230   1.281   1_455  A
C366        C432   1.470       .  S
C366        O367   1.274       .  A
C368        C369   1.399   1_455  A
C368        C373   1.412       .  A
C368        C421   1.496       .  S
C369        C370   1.391   1_655  A
C369        H374   1.084       .  S
C370        C371   1.405       .  A
C371        C372   1.420       .  A
C371        H375   1.076       .  S
C372        C373   1.432       .  A
C372        C377   1.529       .  S
C373        H376   1.076       .  S
C377        C378   1.441       .  A
C377        C382   1.426       .  A
C378        C379   1.413       .  A
C378        H383   1.076       .  S
C379        C380   1.390       .  A
C380        C381   1.390       .  A
C380        H384   1.084       .  S
C381        N386   1.439       .  S
C381        C382   1.397       .  A
C382        H385   1.077       .  S
N386        C390   1.360       .  A
N386        C387   1.353       .  A
C387        C828   1.377       .  A
C387        C418   1.458       .  S
C388        C827   1.377       .  A
C388        C389   1.367       .  A
C388        H391   1.082       .  S
C389        C830   1.379       .  A
C389        H392   1.083       .  S
C390        C829   1.379       .  A
N393        C397   1.368       .  A
N393        C394   1.368       .  A
N393        C427   1.453       .  S
C394        C395   1.377       .  A
C394        C415   1.463       .  S
C395        C396   1.351       .  A
C395        H398   1.083       .  S
C396        C397   1.379       .  A
C396        H399   1.077       .  S
O400        C416   1.279       .  A
O400       Zn406   2.052       .  S
C401        O857   1.278   1_545  A
C401        O414   1.274       .  A
O402        C415   1.277       .  A
O402      Cd1289   2.048       .  S
O403        C421   1.275   1_655  A
O403      Cd1072   2.044   1_556  S
O404        C858   1.273       .  A
O404       Cd408   2.070       .  S
O405       C1296   1.273   1_455  A
O405       Cd408   2.055       .  S
Zn406       O417   2.045       .  S
O407        C418   1.270       .  A
O407      Cd1292   2.051   1_455  S
Cd408      O1071   1.969   1_455  S
Cd409      O1282   2.048   1_455  S
Cd409       O413   2.094       .  S
Cd409       O862   2.123       .  S
Cd409      O1291   1.991   1_456  S
O410        C420   1.275   1_554  A
O411      Cd1068   1.969       .  S
O411      Cd1289   1.991   1_554  S
O411       Cd632   1.959       .  S
Cd412      O1063   2.044       .  S
Cd412      O1287   2.051       .  S
Cd412       O414   2.057       .  S
Cd412       O631   1.959   1_545  S
O413        C420   1.277       .  A
C415        O419   1.280       .  A
C416        C436   1.470       .  S
C416       O1285   1.273       .  A
O417        C841   1.278       .  A
C418        O844   1.273   1_545  A
C421        O422   1.280       .  A
O422       Cd849   2.123   1_545  S
C423        C424   1.418       .  A
C423        C428   1.396       .  A
C423        C434   1.505       .  S
C424        C425   1.420       .  A
C424        H429   1.082       .  S
C425        C426   1.426       .  A
C426        C427   1.404       .  A
C426        H430   1.083       .  S
C427        C428   1.397       .  A
C428        H431   1.081       .  S
C432        C433   1.413       .  A
C432        C437   1.400       .  A
C433        C434   1.414       .  A
C433        H438   1.082       .  S
C434        C435   1.427       .  A
C435        C436   1.394       .  A
C435        H439   1.083       .  S
C436        C437   1.382       .  A
C437       H1320   1.086       .  S
H440       C1317   1.086   1_455  S
N441        C445   1.363       .  A
N441        C442   1.362       .  A
N441        C482   1.452       .  S
C442        C443   1.383       .  A
C442        C470   1.483       .  S
C443        C444   1.361       .  A
C443        H446   1.082       .  S
C444        C445   1.380       .  A
C444        H447   1.084       .  S
C445        C566   1.463       .  S
N448        C452   1.369       .  A
N448        C449   1.370       .  A
N448        C546   1.453       .  S
C449        C450   1.377       .  A
C449        C473   1.468       .  S
C450        C451   1.353       .  A
C450        H453   1.083       .  S
C451        C452   1.385       .  A
C451        H454   1.083       .  S
C452        C585   1.478       .  S
O455        C471   1.269       .  A
O455       Zn461   1.978       .  S
C456        C555   1.454       .  S
C456        O472   1.268       .  A
C456        O469   1.271       .  A
O457        C470   1.278       .  A
O457       Cd464   2.119       .  S
O458        C476   1.275       .  A
O458       Cd467   2.032       .  S
O459        C473   1.278       .  A
O459       Cd463   2.086       .  S
O460        C471   1.274       .  A
O460       Cd463   2.059       .  S
Zn461       O472   1.989       .  S
Zn461       O474   1.982       .  S
Zn461       O466   1.912       .  S
O462        C473   1.272       .  A
O462       Cd467   2.074       .  S
Cd463       O465   2.104       .  S
Cd463       O466   2.009       .  S
Cd464       O468   2.053       .  S
Cd464       O477   2.119       .  S
Cd464       O466   2.020       .  S
O465        C475   1.277       .  A
O466       Cd467   1.984       .  S
Cd467       O469   2.061       .  S
O468        C475   1.277       .  A
C470        O474   1.270       .  A
C471        C491   1.454       .  S
C475        C562   1.483       .  S
C476        C533   1.482       .  S
C476        O477   1.280       .  A
C478        C699   1.393       .  A
C478        C703   1.422       .  A
C478        C489   1.507   1_556  S
C479        C698   1.393       .  A
C479        C480   1.397       .  A
C479        H704   1.080       .  S
C480        N496   1.448       .  S
C480        C481   1.398       .  A
C481        C482   1.423       .  A
C481        H485   1.083       .  S
C482        C483   1.420       .  A
C483        C698   1.422       .  A
C483        H706   1.081       .  S
H484        C699   1.080       .  S
H486        C703   1.081       .  S
C487        C488   1.400       .  A
C487        C492   1.387       .  A
C487        C511   1.474       .  S
C488        C489   1.429       .  A
C488        H493   1.082       .  S
C489        C490   1.406       .  A
C490        C491   1.408       .  A
C490        H494   1.082       .  S
C491        C492   1.397       .  A
C492        H495   1.086       .  S
N496        C500   1.366       .  A
N496        C497   1.363       .  A
C497        C498   1.378       .  A
C497        C525   1.461       .  S
C498        C499   1.355       .  A
C498        H501   1.083       .  S
C499        C500   1.378       .  A
C499        H502   1.076       .  S
C500        C640   1.470       .  S
N503        C507   1.359       .  A
N503        C504   1.355       .  A
N503        C544   1.442       .  S
C504        C528   1.461       .  S
C505        C506   1.367       .  A
C505        H508   1.083       .  S
C506        H509   1.082       .  S
C507        C621   1.463       .  S
O510       Zn516   2.037       .  S
C511        O527   1.280       .  A
C511        O524   1.274       .  A
O512        C525   1.276       .  A
O512       Cd519   2.043       .  S
O513        C531   1.275       .  A
O513       Cd522   2.052       .  S
O514        C528   1.271       .  A
O514       Cd518   2.056       .  S
O515        C526   1.274       .  A
O515       Cd518   2.064       .  S
Zn516       O527   2.057       .  S
Zn516       O529   2.039       .  S
Zn516       O521   1.923       .  S
O517       Cd522   2.078       .  S
Cd518       O520   2.052       .  S
Cd519       O532   2.092       .  S
Cd519       O521   1.995       .  S
O520        C530   1.276       .  A
O521       Cd522   1.968       .  S
Cd522       O524   2.064       .  S
O523        C530   1.278       .  A
C525        O529   1.279       .  A
C526        C610   1.464       .  S
C530        C537   1.496       .  S
C531        C617   1.467       .  S
C531        O532   1.277       .  A
C533        C534   1.408       .  A
C533        C538   1.394       .  A
C534        C535   1.425       .  A
C534        H539   1.078       .  S
C535        C536   1.432       .  A
C535        C542   1.526       .  S
C536        C537   1.409       .  A
C536        H540   1.078       .  S
C537        C538   1.394       .  A
C538        H541   1.085       .  S
C542        C763   1.426       .  A
C542        C767   1.437       .  A
C543        C762   1.426       .  A
C543        C544   1.398       .  A
C543        H768   1.078       .  S
C544        C545   1.393       .  A
C545        C546   1.394       .  A
C545        H549   1.083       .  S
C546        C547   1.414       .  A
C547        C762   1.437       .  A
C547        H770   1.078       .  S
H548        C763   1.078       .  S
H550        C767   1.078       .  S
N551        C555   1.366       .  A
N551        C552   1.368       .  A
N551        C599   1.454       .  S
C552        C553   1.383       .  A
C552        C580   1.480       .  S
C553        C554   1.356       .  A
C553        H556   1.083       .  S
C554        C555   1.378       .  A
C554        H557   1.084       .  S
N558        C562   1.365       .  A
N558        C559   1.363       .  A
N558        C645   1.451       .  S
C559        C560   1.375       .  A
C559        C583   1.472       .  S
C560        C561   1.360       .  A
C560        H563   1.082       .  S
C561        C562   1.387       .  A
C561        H564   1.083       .  S
O565        C581   1.274       .  A
O565       Zn571   2.009       .  S
C566        O582   1.274       .  A
C566        O579   1.269       .  A
O567        C580   1.273       .  A
O567      Cd1454   2.096       .  S
O568        C586   1.271       .  A
O568      Cd1677   2.008   1_554  S
O569        C583   1.279       .  A
O569       Cd573   2.099       .  S
O570       C1461   1.281       .  A
O570       Cd573   2.089       .  S
Zn571       O582   2.029       .  S
Zn571       O804   2.005       .  S
Zn571       O576   1.920   1_455  S
O572        C583   1.270       .  A
O572      Cd1457   2.067       .  S
Cd573       O795   2.112       .  S
Cd573      O1456   2.013       .  S
Cd574      O1447   2.096       .  S
Cd574       O578   2.029       .  S
Cd574       O587   2.090       .  S
Cd574      O1676   2.025   1_554  S
O575        C585   1.277       .  A
O575       Cd793   2.112   1_554  S
O576      Cd1453   2.013       .  S
O576      Cd1674   2.025   1_655  S
O576       Cd577   1.984       .  S
Cd577      O1668   2.008       .  S
Cd577      O1452   2.067       .  S
Cd577       O579   2.056   1_655  S
O578        C585   1.272       .  A
C580        O584   1.275       .  A
C581        C590   1.474       .  S
C581       O1450   1.281   1_455  A
O584       Zn791   2.005   1_554  S
C586        C652   1.470       .  S
C586        O587   1.274       .  A
C588        C589   1.399   1_455  A
C588        C593   1.412       .  A
C588        C641   1.496       .  S
C589        C590   1.391   1_655  A
C589        H594   1.084       .  S
C590        C591   1.405       .  A
C591        C592   1.420       .  A
C591        H595   1.076       .  S
C592        C593   1.432       .  A
C592        C597   1.529       .  S
C593        H596   1.076       .  S
C597        C598   1.441       .  A
C597        C602   1.426       .  A
C598        C599   1.413       .  A
C598        H603   1.076       .  S
C599        C600   1.390       .  A
C600        C601   1.390       .  A
C600        H604   1.084       .  S
C601        N606   1.439       .  S
C601        C602   1.397       .  A
C602        H605   1.077       .  S
N606        C610   1.360       .  A
N606        C607   1.353       .  A
C607        C638   1.458       .  S
C608        C609   1.367       .  A
C608        H611   1.082       .  S
C609        H612   1.083       .  S
N613        C617   1.368       .  A
N613        C614   1.368       .  A
N613        C647   1.453       .  S
C614        C615   1.377       .  A
C614        C635   1.463       .  S
C615        C616   1.351       .  A
C615        H618   1.083       .  S
C616        C617   1.379       .  A
C616        H619   1.077       .  S
O620        C636   1.279       .  A
O620       Zn626   2.052       .  S
C621        O634   1.274       .  A
O622        C635   1.277       .  A
O622      Cd1509   2.048       .  S
O623        C641   1.275   1_655  A
O623      Cd1732   2.044       .  S
O624       Cd628   2.070       .  S
O625       C1516   1.273   1_455  A
O625       Cd628   2.055       .  S
Zn626       O637   2.045       .  S
Zn626       O859   2.047   1_554  S
Zn626       O851   1.922       .  S
O627        C638   1.270       .  A
O627      Cd1512   2.051   1_455  S
Cd628       O850   2.055       .  S
Cd628      O1731   1.969   1_455  S
Cd629      O1502   2.048   1_455  S
Cd629       O633   2.094       .  S
Cd629      O1511   1.991   1_455  S
O630        C640   1.275       .  A
O630       Cd848   2.055       .  S
O631       Zn846   1.922       .  S
O631      Cd1728   1.969       .  S
O631      Cd1509   1.991       .  S
Cd632      O1723   2.044   1_554  S
Cd632      O1507   2.051       .  S
Cd632       O634   2.057       .  S
O633        C640   1.277       .  A
C635        O639   1.280       .  A
C636        C656   1.470       .  S
C636       O1505   1.273       .  A
O639       Zn846   2.047       .  S
C641        O642   1.280       .  A
C643        C644   1.418       .  A
C643        C648   1.396       .  A
C643        C654   1.505       .  S
C644        C645   1.420       .  A
C644        H649   1.082       .  S
C645        C646   1.426       .  A
C646        C647   1.404       .  A
C646        H650   1.083       .  S
C647        C648   1.397       .  A
C648        H651   1.080       .  S
C652        C653   1.413       .  A
C652        C657   1.400       .  A
C653        C654   1.414       .  A
C653        H658   1.082       .  S
C654        C655   1.427       .  A
C655        C656   1.394       .  A
C655        H659   1.083       .  S
C656        C657   1.382       .  A
C657       H1540   1.086       .  S
H660       C1537   1.086   1_455  S
N661        C665   1.363       .  A
N661        C662   1.362       .  A
N661        C702   1.452       .  S
C662        C663   1.383       .  A
C662        C690   1.483       .  S
C663        C664   1.361       .  A
C663        H666   1.082       .  S
C664        C665   1.380       .  A
C664        H667   1.084       .  S
C665        C786   1.463       .  S
N668        C672   1.369       .  A
N668        C669   1.370       .  A
N668        C766   1.453       .  S
C669        C670   1.377       .  A
C669        C693   1.468       .  S
C670        C671   1.353       .  A
C670        H673   1.083       .  S
C671        C672   1.385       .  A
C671        H674   1.083       .  S
C672        C805   1.478       .  S
O675        C691   1.269       .  A
O675       Zn681   1.978       .  S
C676        C775   1.454       .  S
C676        O692   1.268       .  A
C676        O689   1.271       .  A
O677        C690   1.278       .  A
O677       Cd684   2.119       .  S
O678        C696   1.275       .  A
O678       Cd687   2.032       .  S
O679        C693   1.278       .  A
O679       Cd683   2.086       .  S
O680        C691   1.274       .  A
O680       Cd683   2.059       .  S
Zn681       O692   1.989       .  S
Zn681       O694   1.982       .  S
Zn681       O686   1.912       .  S
O682        C693   1.272       .  A
O682       Cd687   2.074       .  S
Cd683       O685   2.104       .  S
Cd683       O686   2.009       .  S
Cd684       O688   2.053       .  S
Cd684       O697   2.119       .  S
Cd684       O686   2.020       .  S
O685        C695   1.277       .  A
O686       Cd687   1.984       .  S
Cd687       O689   2.061       .  S
O688        C695   1.277       .  A
C690        O694   1.270       .  A
C691        C711   1.454       .  S
C695        C782   1.483       .  S
C696        C753   1.482       .  S
C696        O697   1.280       .  A
C698        C709   1.507       .  S
C699        C700   1.397       .  A
C700        N716   1.448       .  S
C700        C701   1.398       .  A
C701        C702   1.423       .  A
C701        H705   1.083       .  S
C702        C703   1.420       .  A
C707        C708   1.400       .  A
C707        C712   1.387       .  A
C707        C731   1.474       .  S
C708        C709   1.429       .  A
C708        H713   1.082       .  S
C709        C710   1.406       .  A
C710        C711   1.408       .  A
C710        H714   1.082       .  S
C711        C712   1.397       .  A
C712        H715   1.086       .  S
N716        C720   1.366       .  A
N716        C717   1.363       .  A
C717        C718   1.378       .  A
C717        C745   1.461       .  S
C718        C719   1.355       .  A
C718        H721   1.083       .  S
C719        C720   1.378       .  A
C719        H722   1.076   1_556  S
C720        C860   1.470       .  S
N723        C727   1.359       .  A
N723        C724   1.355       .  A
N723        C764   1.442       .  S
C724        C748   1.461       .  S
C725        C726   1.367       .  A
C725        H728   1.083       .  S
C726        H729   1.082       .  S
C727        C841   1.463       .  S
O730       Zn736   2.037       .  S
C731        O747   1.280       .  A
C731        O744   1.274       .  A
O732        C745   1.276       .  A
O732       Cd739   2.043       .  S
O733        C751   1.275       .  A
O733       Cd742   2.052       .  S
O734        C748   1.271       .  A
O734       Cd738   2.056       .  S
O735        C746   1.274       .  A
O735       Cd738   2.064       .  S
Zn736       O747   2.057       .  S
Zn736       O749   2.039       .  S
Zn736       O741   1.923       .  S
O737       Cd742   2.078       .  S
Cd738       O740   2.052       .  S
Cd739       O752   2.092       .  S
Cd739       O741   1.995       .  S
O740        C750   1.276       .  A
O741       Cd742   1.968       .  S
Cd742       O744   2.064       .  S
O743        C750   1.278       .  A
C745        O749   1.279       .  A
C746        C830   1.464       .  S
C750        C757   1.496       .  S
C751        C837   1.467       .  S
C751        O752   1.277       .  A
C753        C754   1.408       .  A
C753        C758   1.394       .  A
C754        C755   1.425       .  A
C754        H759   1.078       .  S
C755        C756   1.432       .  A
C755        C762   1.526   1_556  S
C756        C757   1.409       .  A
C756        H760   1.078       .  S
C757        C758   1.394       .  A
C758        H761   1.085       .  S
C763        C764   1.398       .  A
C764        C765   1.393       .  A
C765        C766   1.394       .  A
C765        H769   1.083       .  S
C766        C767   1.414       .  A
N771        C775   1.366       .  A
N771        C772   1.368       .  A
N771        C819   1.454       .  S
C772        C773   1.383       .  A
C772        C800   1.480       .  S
C773        C774   1.356       .  A
C773        H776   1.082       .  S
C774        C775   1.378       .  A
C774        H777   1.084       .  S
N778        C782   1.365       .  A
N778        C779   1.363       .  A
N778        C865   1.451       .  S
C779        C780   1.375       .  A
C779        C803   1.472       .  S
C780        C781   1.360       .  A
C780        H783   1.082       .  S
C781        C782   1.387       .  A
C781        H784   1.083       .  S
O785        C801   1.274       .  A
O785       Zn791   2.009       .  S
C786        O802   1.274       .  A
C786        O799   1.269       .  A
O787        C800   1.273       .  A
O787      Cd1674   2.096       .  S
O788        C806   1.271       .  A
O788      Cd1457   2.008       .  S
O789        C803   1.279       .  A
O789       Cd793   2.099       .  S
O790       C1681   1.281       .  A
O790       Cd793   2.089       .  S
Zn791       O802   2.029       .  S
Zn791       O796   1.920   1_455  S
O792        C803   1.270       .  A
O792      Cd1677   2.067       .  S
Cd793      O1676   2.013       .  S
Cd794      O1667   2.096       .  S
Cd794       O798   2.029       .  S
Cd794       O807   2.090       .  S
Cd794      O1456   2.025       .  S
O795        C805   1.277       .  A
O796      Cd1673   2.013       .  S
O796      Cd1454   2.025   1_656  S
O796       Cd797   1.984       .  S
Cd797      O1448   2.008   1_556  S
Cd797      O1672   2.067       .  S
Cd797       O799   2.056   1_655  S
O798        C805   1.272       .  A
C800        O804   1.275       .  A
C801        C810   1.474       .  S
C801       O1670   1.281   1_455  A
C806        C872   1.470       .  S
C806        O807   1.274       .  A
C808        C809   1.399   1_455  A
C808        C813   1.412       .  A
C808        C861   1.496       .  S
C809        C810   1.391   1_655  A
C809        H814   1.084       .  S
C810        C811   1.405       .  A
C811        C812   1.420       .  A
C811        H815   1.076       .  S
C812        C813   1.432       .  A
C812        C817   1.529       .  S
C813        H816   1.076       .  S
C817        C818   1.441       .  A
C817        C822   1.426       .  A
C818        C819   1.413       .  A
C818        H823   1.076       .  S
C819        C820   1.390       .  A
C820        C821   1.390       .  A
C820        H824   1.084       .  S
C821        N826   1.439       .  S
C821        C822   1.397       .  A
C822        H825   1.077       .  S
N826        C830   1.360       .  A
N826        C827   1.353       .  A
C827        C858   1.458       .  S
C828        C829   1.367       .  A
C828        H831   1.082       .  S
C829        H832   1.083       .  S
N833        C837   1.368       .  A
N833        C834   1.368       .  A
N833        C867   1.453       .  S
C834        C835   1.377       .  A
C834        C855   1.463       .  S
C835        C836   1.351       .  A
C835        H838   1.083       .  S
C836        C837   1.379       .  A
C836        H839   1.077       .  S
O840        C856   1.279       .  A
O840       Zn846   2.052       .  S
C841        O854   1.274       .  A
O842        C855   1.277       .  A
O842      Cd1729   2.048       .  S
O843        C861   1.275   1_655  A
O843      Cd1512   2.044   1_556  S
O844       Cd848   2.070       .  S
O845       C1736   1.273   1_455  A
O845       Cd848   2.055       .  S
Zn846       O857   2.045       .  S
O847        C858   1.270       .  A
O847      Cd1732   2.051   1_455  S
Cd848      O1511   1.969   1_455  S
Cd849      O1722   2.048   1_455  S
Cd849       O853   2.094       .  S
Cd849      O1731   1.991   1_456  S
O850        C860   1.275   1_554  A
O851      Cd1508   1.969       .  S
O851      Cd1729   1.991   1_554  S
Cd852      O1503   2.044       .  S
Cd852      O1727   2.051       .  S
Cd852       O854   2.057       .  S
O853        C860   1.277       .  A
C855        O859   1.280       .  A
C856        C876   1.470       .  S
C856       O1725   1.273       .  A
C861        O862   1.280       .  A
C863        C864   1.418       .  A
C863        C868   1.396       .  A
C863        C874   1.505       .  S
C864        C865   1.420       .  A
C864        H869   1.082       .  S
C865        C866   1.426       .  A
C866        C867   1.404       .  A
C866        H870   1.083       .  S
C867        C868   1.397       .  A
C868        H871   1.080       .  S
C872        C873   1.413       .  A
C872        C877   1.400       .  A
C873        C874   1.414       .  A
C873        H878   1.082       .  S
C874        C875   1.427       .  A
C875        C876   1.394       .  A
C875        H879   1.083       .  S
C876        C877   1.382       .  A
C877       H1760   1.086       .  S
H880       C1757   1.086   1_455  S
N881        C885   1.363       .  A
N881        C882   1.362       .  A
N881        C922   1.452       .  S
C882        C883   1.383       .  A
C882        C910   1.483       .  S
C883        C884   1.361       .  A
C883        H886   1.082       .  S
C884        C885   1.380       .  A
C884        H887   1.084       .  S
C885       C1006   1.463       .  S
N888        C892   1.369       .  A
N888        C889   1.370       .  A
N888        C986   1.453       .  S
C889        C890   1.377       .  A
C889        C913   1.468       .  S
C890        C891   1.353       .  A
C890        H893   1.083       .  S
C891        C892   1.385       .  A
C891        H894   1.083       .  S
C892       C1025   1.478       .  S
O895        C911   1.269       .  A
O895       Zn901   1.978       .  S
C896        C995   1.454       .  S
C896        O912   1.268       .  A
C896        O909   1.271       .  A
O897        C910   1.278       .  A
O897       Cd904   2.119       .  S
O898        C916   1.275       .  A
O898       Cd907   2.032       .  S
O899        C913   1.278       .  A
O899       Cd903   2.086       .  S
O900        C911   1.274       .  A
O900       Cd903   2.059       .  S
Zn901       O912   1.989       .  S
Zn901       O914   1.982       .  S
Zn901       O906   1.912       .  S
O902        C913   1.272       .  A
O902       Cd907   2.074       .  S
Cd903       O905   2.104       .  S
Cd903       O906   2.009       .  S
Cd904       O908   2.053       .  S
Cd904       O917   2.119       .  S
Cd904       O906   2.020       .  S
O905        C915   1.277       .  A
O906       Cd907   1.984       .  S
Cd907       O909   2.061       .  S
O908        C915   1.277       .  A
C910        O914   1.270       .  A
C911        C931   1.454       .  S
C915       C1002   1.483       .  S
C916        C973   1.482       .  S
C916        O917   1.280       .  A
C918       C1139   1.393       .  A
C918       C1143   1.422       .  A
C918        C929   1.507   1_556  S
C919       C1138   1.393       .  A
C919        C920   1.397       .  A
C919       H1144   1.080       .  S
C920        N936   1.448       .  S
C920        C921   1.398       .  A
C921        C922   1.423       .  A
C921        H925   1.083       .  S
C922        C923   1.420       .  A
C923       C1138   1.422       .  A
C923       H1146   1.081       .  S
H924       C1139   1.080       .  S
H926       C1143   1.081       .  S
C927        C928   1.400       .  A
C927        C932   1.387       .  A
C927        C951   1.474       .  S
C928        C929   1.429       .  A
C928        H933   1.082       .  S
C929        C930   1.406       .  A
C930        C931   1.408       .  A
C930        H934   1.082       .  S
C931        C932   1.397       .  A
C932        H935   1.086       .  S
N936        C940   1.366       .  A
N936        C937   1.363       .  A
C937        C938   1.378       .  A
C937        C965   1.461       .  S
C938        C939   1.355       .  A
C938        H941   1.083       .  S
C939        C940   1.378       .  A
C939        H942   1.076       .  S
C940       C1080   1.470       .  S
N943        C947   1.359       .  A
N943        C944   1.355       .  A
N943        C984   1.442       .  S
C944       C1385   1.380       .  A
C944        C968   1.461       .  S
C945       C1384   1.380       .  A
C945        C946   1.367       .  A
C945        H948   1.083       .  S
C946       C1387   1.378       .  A
C946        H949   1.082       .  S
C947       C1386   1.378       .  A
C947       C1061   1.463       .  S
O950       C1406   1.277       .  A
O950       Zn956   2.037       .  S
C951        O967   1.280       .  A
C951        O964   1.274       .  A
O952        C965   1.276       .  A
O952       Cd959   2.043       .  S
O953        C971   1.275       .  A
O953       Cd962   2.052       .  S
O954        C968   1.271       .  A
O954       Cd958   2.056       .  S
O955        C966   1.274       .  A
O955       Cd958   2.064       .  S
Zn956       O967   2.057       .  S
Zn956       O969   2.039       .  S
Zn956       O961   1.923       .  S
O957       C1408   1.275       .  A
O957       Cd962   2.078       .  S
Cd958       O960   2.052       .  S
Cd958      O1401   1.960   1_545  S
Cd959      O1403   2.118       .  S
Cd959       O972   2.092       .  S
Cd959       O961   1.995       .  S
O960        C970   1.276       .  A
O961      Cd1398   1.960       .  S
O961       Cd962   1.968       .  S
Cd962       O964   2.064       .  S
O963        C970   1.278       .  A
O963      Cd1399   2.118   1_545  S
C965        O969   1.279       .  A
C966       C1050   1.464       .  S
C966       O1390   1.277   1_545  A
C968       O1397   1.275   1_545  A
C970        C977   1.496       .  S
C971       C1057   1.467       .  S
C971        O972   1.277       .  A
C973        C974   1.408       .  A
C973        C978   1.394       .  A
C974        C975   1.425       .  A
C974        H979   1.078       .  S
C975        C976   1.432       .  A
C975        C982   1.526       .  S
C976        C977   1.409       .  A
C976        H980   1.078       .  S
C977        C978   1.394       .  A
C978        H981   1.085       .  S
C982       C1203   1.426       .  A
C982       C1207   1.437       .  A
C983       C1202   1.426       .  A
C983        C984   1.398       .  A
C983       H1208   1.078       .  S
C984        C985   1.393       .  A
C985        C986   1.394       .  A
C985        H989   1.083       .  S
C986        C987   1.414       .  A
C987       C1202   1.437       .  A
C987       H1210   1.078       .  S
H988       C1203   1.078       .  S
H990       C1207   1.078       .  S
N991        C995   1.366       .  A
N991        C992   1.368       .  A
N991       C1039   1.454       .  S
C992        C993   1.383       .  A
C992       C1020   1.480       .  S
C993        C994   1.356       .  A
C993        H996   1.083       .  S
C994        C995   1.378       .  A
C994        H997   1.084       .  S
N998       C1002   1.365       .  A
N998        C999   1.363       .  A
N998       C1085   1.451       .  S
C999       C1000   1.375       .  A
C999       C1023   1.472       .  S
C1000      C1001   1.360       .  A
C1000      H1003   1.082       .  S
C1001      C1002   1.387       .  A
C1001      H1004   1.083       .  S
O1005      C1021   1.274       .  A
O1005     Zn1011   2.009       .  S
C1006      O1022   1.274       .  A
C1006      O1019   1.269       .  A
O1007      C1020   1.273       .  A
O1008      C1026   1.271       .  A
O1009      C1023   1.279       .  A
O1009     Cd1013   2.099       .  S
O1010     Cd1013   2.089       .  S
Zn1011     O1022   2.029       .  S
Zn1011     O1244   2.005       .  S
Zn1011     O1016   1.920       .  S
O1012      C1023   1.270       .  A
Cd1013     O1235   2.112       .  S
Cd1014     O1018   2.029   1_455  S
Cd1014     O1027   2.090   1_455  S
O1015      C1025   1.277       .  A
O1015     Cd1233   2.112   1_554  S
O1016     Cd1017   1.984       .  S
Cd1017     O1019   2.056       .  S
O1018      C1025   1.272       .  A
C1020      O1024   1.275       .  A
C1021      C1030   1.474       .  S
O1024     Zn1231   2.005   1_554  S
C1026      C1092   1.470       .  S
C1026      O1027   1.274       .  A
C1028      C1029   1.399       .  A
C1028      C1033   1.412       .  A
C1028      C1081   1.496       .  S
C1029      C1030   1.391       .  A
C1029      H1034   1.084       .  S
C1030      C1031   1.405       .  A
C1031      C1032   1.420       .  A
C1031      H1035   1.076       .  S
C1032      C1033   1.432       .  A
C1032      C1037   1.529       .  S
C1033      H1036   1.076       .  S
C1037      C1038   1.441       .  A
C1037      C1042   1.426       .  A
C1038      C1039   1.413       .  A
C1038      H1043   1.076       .  S
C1039      C1040   1.390       .  A
C1040      C1041   1.390       .  A
C1040      H1044   1.084       .  S
C1041      N1046   1.439       .  S
C1041      C1042   1.397       .  A
C1042      H1045   1.077       .  S
N1046      C1050   1.360       .  A
N1046      C1047   1.353       .  A
C1047      C1488   1.377       .  A
C1047      C1078   1.458       .  S
C1048      C1487   1.377       .  A
C1048      C1049   1.367       .  A
C1048      H1051   1.082       .  S
C1049      C1490   1.379       .  A
C1049      H1052   1.083       .  S
C1050      C1489   1.379       .  A
N1053      C1057   1.368       .  A
N1053      C1054   1.368       .  A
N1053      C1087   1.453       .  S
C1054      C1055   1.377       .  A
C1054      C1075   1.463       .  S
C1055      C1056   1.351       .  A
C1055      H1058   1.083       .  S
C1056      C1057   1.379       .  A
C1056      H1059   1.077       .  S
O1060      C1076   1.279       .  A
O1060     Zn1066   2.052       .  S
C1061      O1517   1.278   1_545  A
C1061      O1074   1.274       .  A
O1062      C1075   1.277       .  A
O1063      C1081   1.275       .  A
O1064      C1518   1.273       .  A
O1064     Cd1068   2.070       .  S
O1065     Cd1068   2.055       .  S
Zn1066     O1077   2.045       .  S
Zn1066     O1299   2.047   1_554  S
Zn1066     O1291   1.922       .  S
O1067      C1078   1.270       .  A
Cd1068     O1290   2.055       .  S
Cd1069     O1073   2.094       .  S
Cd1069     O1522   2.123       .  S
O1070      C1080   1.275       .  A
O1070     Cd1288   2.055       .  S
O1071     Zn1286   1.922       .  S
O1071     Cd1732   1.959       .  S
Cd1072     O1074   2.057       .  S
Cd1072     O1731   1.959   1_545  S
O1073      C1080   1.277       .  A
C1075      O1079   1.280       .  A
C1076      C1096   1.470       .  S
O1077      C1501   1.278       .  A
C1078      O1504   1.273   1_545  A
O1079     Zn1286   2.047       .  S
C1081      O1082   1.280       .  A
O1082     Cd1509   2.123   1_545  S
C1083      C1084   1.418       .  A
C1083      C1088   1.396       .  A
C1083      C1094   1.505       .  S
C1084      C1085   1.420       .  A
C1084      H1089   1.082       .  S
C1085      C1086   1.426       .  A
C1086      C1087   1.404       .  A
C1086      H1090   1.083       .  S
C1087      C1088   1.397       .  A
C1088      H1091   1.080       .  S
C1092      C1093   1.413       .  A
C1092      C1097   1.400       .  A
C1093      C1094   1.414       .  A
C1093      H1098   1.082       .  S
C1094      C1095   1.427       .  A
C1095      C1096   1.394       .  A
C1095      H1099   1.083       .  S
C1096      C1097   1.382       .  A
N1101      C1105   1.363       .  A
N1101      C1102   1.362       .  A
N1101      C1142   1.452       .  S
C1102      C1103   1.383       .  A
C1102      C1130   1.483       .  S
C1103      C1104   1.361       .  A
C1103      H1106   1.082       .  S
C1104      C1105   1.380       .  A
C1104      H1107   1.084       .  S
C1105      C1226   1.463       .  S
N1108      C1112   1.369       .  A
N1108      C1109   1.370       .  A
N1108      C1206   1.453       .  S
C1109      C1110   1.377       .  A
C1109      C1133   1.468       .  S
C1110      C1111   1.353       .  A
C1110      H1113   1.083       .  S
C1111      C1112   1.385       .  A
C1111      H1114   1.083       .  S
C1112      C1245   1.478       .  S
O1115      C1131   1.269       .  A
O1115     Zn1121   1.978       .  S
C1116      C1215   1.454       .  S
C1116      O1132   1.268       .  A
C1116      O1129   1.271       .  A
O1117      C1130   1.278       .  A
O1117     Cd1124   2.119       .  S
O1118      C1136   1.275       .  A
O1118     Cd1127   2.032       .  S
O1119      C1133   1.278       .  A
O1119     Cd1123   2.086       .  S
O1120      C1131   1.274       .  A
O1120     Cd1123   2.059       .  S
Zn1121     O1132   1.989       .  S
Zn1121     O1134   1.982       .  S
Zn1121     O1126   1.912       .  S
O1122      C1133   1.272       .  A
O1122     Cd1127   2.074       .  S
Cd1123     O1125   2.104       .  S
Cd1123     O1126   2.009       .  S
Cd1124     O1128   2.053       .  S
Cd1124     O1137   2.119       .  S
Cd1124     O1126   2.020       .  S
O1125      C1135   1.277       .  A
O1126     Cd1127   1.984       .  S
Cd1127     O1129   2.061       .  S
O1128      C1135   1.277       .  A
C1130      O1134   1.270       .  A
C1131      C1151   1.454       .  S
C1135      C1222   1.483       .  S
C1136      C1193   1.482       .  S
C1136      O1137   1.280       .  A
C1138      C1149   1.507       .  S
C1139      C1140   1.397       .  A
C1140      N1156   1.448       .  S
C1140      C1141   1.398       .  A
C1141      C1142   1.423       .  A
C1141      H1145   1.083       .  S
C1142      C1143   1.420       .  A
C1147      C1148   1.400       .  A
C1147      C1152   1.387       .  A
C1147      C1171   1.474       .  S
C1148      C1149   1.429       .  A
C1148      H1153   1.082       .  S
C1149      C1150   1.406       .  A
C1150      C1151   1.408       .  A
C1150      H1154   1.082       .  S
C1151      C1152   1.397       .  A
C1152      H1155   1.086       .  S
N1156      C1160   1.366       .  A
N1156      C1157   1.363       .  A
C1157      C1158   1.378       .  A
C1157      C1185   1.461       .  S
C1158      C1159   1.355       .  A
C1158      H1161   1.083       .  S
C1159      C1160   1.378       .  A
C1159      H1162   1.076   1_556  S
C1160      C1300   1.470       .  S
N1163      C1167   1.359       .  A
N1163      C1164   1.355       .  A
N1163      C1204   1.442       .  S
C1164      C1605   1.380       .  A
C1164      C1188   1.461       .  S
C1165      C1604   1.380       .  A
C1165      C1166   1.367       .  A
C1165      H1168   1.083       .  S
C1166      C1607   1.378       .  A
C1166      H1169   1.082       .  S
C1167      C1606   1.378       .  A
C1167      C1281   1.463       .  S
O1170      C1626   1.277       .  A
O1170     Zn1176   2.037       .  S
C1171      O1187   1.280       .  A
C1171      O1184   1.274       .  A
O1172      C1185   1.276       .  A
O1172     Cd1179   2.043       .  S
O1173      C1191   1.275       .  A
O1173     Cd1182   2.052       .  S
O1174      C1188   1.271       .  A
O1174     Cd1178   2.056       .  S
O1175      C1186   1.274       .  A
O1175     Cd1178   2.064       .  S
Zn1176     O1187   2.057       .  S
Zn1176     O1189   2.039       .  S
Zn1176     O1181   1.923       .  S
O1177      C1628   1.275       .  A
O1177     Cd1182   2.078       .  S
Cd1178     O1180   2.052       .  S
Cd1178     O1621   1.960   1_545  S
Cd1179     O1623   2.118       .  S
Cd1179     O1192   2.092       .  S
Cd1179     O1181   1.995       .  S
O1180      C1190   1.276       .  A
O1181     Cd1618   1.960       .  S
O1181     Cd1182   1.968       .  S
Cd1182     O1184   2.064       .  S
O1183      C1190   1.278       .  A
O1183     Cd1619   2.118   1_545  S
C1185      O1189   1.279       .  A
C1186      C1270   1.464       .  S
C1186      O1610   1.277   1_545  A
C1188      O1617   1.275   1_545  A
C1190      C1197   1.496       .  S
C1191      C1277   1.467       .  S
C1191      O1192   1.277       .  A
C1193      C1194   1.408       .  A
C1193      C1198   1.394       .  A
C1194      C1195   1.425       .  A
C1194      H1199   1.078       .  S
C1195      C1196   1.432       .  A
C1195      C1202   1.526   1_556  S
C1196      C1197   1.409       .  A
C1196      H1200   1.078       .  S
C1197      C1198   1.394       .  A
C1198      H1201   1.085       .  S
C1203      C1204   1.398       .  A
C1204      C1205   1.393       .  A
C1205      C1206   1.394       .  A
C1205      H1209   1.083       .  S
C1206      C1207   1.414       .  A
N1211      C1215   1.366       .  A
N1211      C1212   1.368       .  A
N1211      C1259   1.454       .  S
C1212      C1213   1.383       .  A
C1212      C1240   1.480       .  S
C1213      C1214   1.356       .  A
C1213      H1216   1.082       .  S
C1214      C1215   1.378       .  A
C1214      H1217   1.084       .  S
N1218      C1222   1.365       .  A
N1218      C1219   1.363       .  A
N1218      C1305   1.451       .  S
C1219      C1220   1.375       .  A
C1219      C1243   1.472       .  S
C1220      C1221   1.360       .  A
C1220      H1223   1.082       .  S
C1221      C1222   1.387       .  A
C1221      H1224   1.083       .  S
O1225      C1241   1.274       .  A
O1225     Zn1231   2.009       .  S
C1226      O1242   1.274       .  A
C1226      O1239   1.269       .  A
O1227      C1240   1.273       .  A
O1228      C1246   1.271       .  A
O1229      C1243   1.279       .  A
O1229     Cd1233   2.099       .  S
O1230     Cd1233   2.089       .  S
Zn1231     O1242   2.029       .  S
Zn1231     O1236   1.920       .  S
O1232      C1243   1.270       .  A
Cd1234     O1238   2.029   1_455  S
Cd1234     O1247   2.090   1_455  S
O1235      C1245   1.277       .  A
O1236     Cd1237   1.984       .  S
Cd1237     O1239   2.056       .  S
O1238      C1245   1.272       .  A
C1240      O1244   1.275       .  A
C1241      C1250   1.474       .  S
C1246      C1312   1.470       .  S
C1246      O1247   1.274       .  A
C1248      C1249   1.399       .  A
C1248      C1253   1.412       .  A
C1248      C1301   1.496       .  S
C1249      C1250   1.391       .  A
C1249      H1254   1.084       .  S
C1250      C1251   1.405       .  A
C1251      C1252   1.420       .  A
C1251      H1255   1.076       .  S
C1252      C1253   1.432       .  A
C1252      C1257   1.529       .  S
C1253      H1256   1.076       .  S
C1257      C1258   1.441       .  A
C1257      C1262   1.426       .  A
C1258      C1259   1.413       .  A
C1258      H1263   1.076       .  S
C1259      C1260   1.390       .  A
C1260      C1261   1.390       .  A
C1260      H1264   1.084       .  S
C1261      N1266   1.439       .  S
C1261      C1262   1.397       .  A
C1262      H1265   1.077       .  S
N1266      C1270   1.360       .  A
N1266      C1267   1.353       .  A
C1267      C1708   1.377       .  A
C1267      C1298   1.458       .  S
C1268      C1707   1.377       .  A
C1268      C1269   1.367       .  A
C1268      H1271   1.082       .  S
C1269      C1710   1.379       .  A
C1269      H1272   1.083       .  S
C1270      C1709   1.379       .  A
N1273      C1277   1.368       .  A
N1273      C1274   1.368       .  A
N1273      C1307   1.453       .  S
C1274      C1275   1.377       .  A
C1274      C1295   1.463       .  S
C1275      C1276   1.351       .  A
C1275      H1278   1.083       .  S
C1276      C1277   1.379       .  A
C1276      H1279   1.077       .  S
O1280      C1296   1.279       .  A
O1280     Zn1286   2.052       .  S
C1281      O1737   1.278   1_545  A
C1281      O1294   1.274       .  A
O1282      C1295   1.277       .  A
O1283      C1301   1.275       .  A
O1284      C1738   1.273       .  A
O1284     Cd1288   2.070       .  S
O1285     Cd1288   2.055       .  S
Zn1286     O1297   2.045       .  S
O1287      C1298   1.270       .  A
Cd1289     O1293   2.094       .  S
Cd1289     O1742   2.123       .  S
O1290      C1300   1.275   1_554  A
O1291     Cd1512   1.959       .  S
Cd1292     O1294   2.057       .  S
Cd1292     O1511   1.959   1_545  S
O1293      C1300   1.277       .  A
C1295      O1299   1.280       .  A
C1296      C1316   1.470       .  S
O1297      C1721   1.278       .  A
C1298      O1724   1.273   1_545  A
C1301      O1302   1.280       .  A
O1302     Cd1729   2.123   1_545  S
C1303      C1304   1.418       .  A
C1303      C1308   1.396       .  A
C1303      C1314   1.505       .  S
C1304      C1305   1.420       .  A
C1304      H1309   1.082       .  S
C1305      C1306   1.426       .  A
C1306      C1307   1.404       .  A
C1306      H1310   1.083       .  S
C1307      C1308   1.397       .  A
C1308      H1311   1.080       .  S
C1312      C1313   1.413       .  A
C1312      C1317   1.400       .  A
C1313      C1314   1.414       .  A
C1313      H1318   1.082       .  S
C1314      C1315   1.427       .  A
C1315      C1316   1.394       .  A
C1315      H1319   1.083       .  S
C1316      C1317   1.382       .  A
N1321      C1325   1.363       .  A
N1321      C1322   1.362       .  A
N1321      C1362   1.452       .  S
C1322      C1323   1.383       .  A
C1322      C1350   1.483       .  S
C1323      C1324   1.361       .  A
C1323      H1326   1.082       .  S
C1324      C1325   1.380       .  A
C1324      H1327   1.084       .  S
C1325      C1446   1.463       .  S
N1328      C1332   1.369       .  A
N1328      C1329   1.370       .  A
N1328      C1426   1.453       .  S
C1329      C1330   1.377       .  A
C1329      C1353   1.468       .  S
C1330      C1331   1.353       .  A
C1330      H1333   1.083       .  S
C1331      C1332   1.385       .  A
C1331      H1334   1.083       .  S
C1332      C1465   1.478       .  S
O1335      C1351   1.269       .  A
O1335     Zn1341   1.978       .  S
C1336      C1435   1.454       .  S
C1336      O1352   1.268       .  A
C1336      O1349   1.271       .  A
O1337      C1350   1.278       .  A
O1337     Cd1344   2.119       .  S
O1338      C1356   1.275       .  A
O1338     Cd1347   2.032       .  S
O1339      C1353   1.278       .  A
O1339     Cd1343   2.086       .  S
O1340      C1351   1.274       .  A
O1340     Cd1343   2.059       .  S
Zn1341     O1352   1.989       .  S
Zn1341     O1354   1.982       .  S
Zn1341     O1346   1.912       .  S
O1342      C1353   1.272       .  A
O1342     Cd1347   2.074       .  S
Cd1343     O1345   2.104       .  S
Cd1343     O1346   2.009       .  S
Cd1344     O1348   2.053       .  S
Cd1344     O1357   2.119       .  S
Cd1344     O1346   2.020       .  S
O1345      C1355   1.277       .  A
O1346     Cd1347   1.984       .  S
Cd1347     O1349   2.061       .  S
O1348      C1355   1.277       .  A
C1350      O1354   1.270       .  A
C1351      C1371   1.454       .  S
C1355      C1442   1.483       .  S
C1356      C1413   1.482       .  S
C1356      O1357   1.280       .  A
C1358      C1579   1.393       .  A
C1358      C1583   1.422       .  A
C1358      C1369   1.507   1_556  S
C1359      C1578   1.393       .  A
C1359      C1360   1.397       .  A
C1359      H1584   1.080       .  S
C1360      N1376   1.448       .  S
C1360      C1361   1.398       .  A
C1361      C1362   1.423       .  A
C1361      H1365   1.083       .  S
C1362      C1363   1.420       .  A
C1363      C1578   1.422       .  A
C1363      H1586   1.081       .  S
H1364      C1579   1.080       .  S
H1366      C1583   1.081       .  S
C1367      C1368   1.400       .  A
C1367      C1372   1.387       .  A
C1367      C1391   1.474       .  S
C1368      C1369   1.429       .  A
C1368      H1373   1.082       .  S
C1369      C1370   1.406       .  A
C1370      C1371   1.408       .  A
C1370      H1374   1.082       .  S
C1371      C1372   1.397       .  A
C1372      H1375   1.086       .  S
N1376      C1380   1.366       .  A
N1376      C1377   1.363       .  A
C1377      C1378   1.378       .  A
C1377      C1405   1.461       .  S
C1378      C1379   1.355       .  A
C1378      H1381   1.083       .  S
C1379      C1380   1.378       .  A
C1379      H1382   1.076       .  S
C1380      C1520   1.470       .  S
N1383      C1387   1.359       .  A
N1383      C1384   1.355       .  A
N1383      C1424   1.442       .  S
C1384      C1408   1.461       .  S
C1385      C1386   1.367       .  A
C1385      H1388   1.083       .  S
C1386      H1389   1.082       .  S
C1387      C1501   1.463       .  S
O1390     Zn1396   2.037       .  S
C1391      O1407   1.280       .  A
C1391      O1404   1.274       .  A
O1392      C1405   1.276       .  A
O1392     Cd1399   2.043       .  S
O1393      C1411   1.275       .  A
O1393     Cd1402   2.052       .  S
O1394      C1408   1.271       .  A
O1394     Cd1398   2.056       .  S
O1395      C1406   1.274       .  A
O1395     Cd1398   2.064       .  S
Zn1396     O1407   2.057       .  S
Zn1396     O1409   2.039       .  S
Zn1396     O1401   1.923       .  S
O1397     Cd1402   2.078       .  S
Cd1398     O1400   2.052       .  S
Cd1399     O1412   2.092       .  S
Cd1399     O1401   1.995       .  S
O1400      C1410   1.276       .  A
O1401     Cd1402   1.968       .  S
Cd1402     O1404   2.064       .  S
O1403      C1410   1.278       .  A
C1405      O1409   1.279       .  A
C1406      C1490   1.464       .  S
C1410      C1417   1.496       .  S
C1411      C1497   1.467       .  S
C1411      O1412   1.277       .  A
C1413      C1414   1.408       .  A
C1413      C1418   1.394       .  A
C1414      C1415   1.425       .  A
C1414      H1419   1.078       .  S
C1415      C1416   1.432       .  A
C1415      C1422   1.526       .  S
C1416      C1417   1.409       .  A
C1416      H1420   1.078       .  S
C1417      C1418   1.394       .  A
C1418      H1421   1.085       .  S
C1422      C1643   1.426       .  A
C1422      C1647   1.437       .  A
C1423      C1642   1.426       .  A
C1423      C1424   1.398       .  A
C1423      H1648   1.078       .  S
C1424      C1425   1.393       .  A
C1425      C1426   1.394       .  A
C1425      H1429   1.083       .  S
C1426      C1427   1.414       .  A
C1427      C1642   1.437       .  A
C1427      H1650   1.078       .  S
H1428      C1643   1.078       .  S
H1430      C1647   1.078       .  S
N1431      C1435   1.366       .  A
N1431      C1432   1.368       .  A
N1431      C1479   1.454       .  S
C1432      C1433   1.383       .  A
C1432      C1460   1.480       .  S
C1433      C1434   1.356       .  A
C1433      H1436   1.083       .  S
C1434      C1435   1.378       .  A
C1434      H1437   1.084       .  S
N1438      C1442   1.365       .  A
N1438      C1439   1.363       .  A
N1438      C1525   1.451       .  S
C1439      C1440   1.375       .  A
C1439      C1463   1.472       .  S
C1440      C1441   1.360       .  A
C1440      H1443   1.082       .  S
C1441      C1442   1.387       .  A
C1441      H1444   1.083       .  S
O1445      C1461   1.274       .  A
O1445     Zn1451   2.009       .  S
C1446      O1462   1.274       .  A
C1446      O1459   1.269       .  A
O1447      C1460   1.273       .  A
O1448      C1466   1.271       .  A
O1449      C1463   1.279       .  A
O1449     Cd1453   2.099       .  S
O1450     Cd1453   2.089       .  S
Zn1451     O1462   2.029       .  S
Zn1451     O1684   2.005       .  S
Zn1451     O1456   1.920       .  S
O1452      C1463   1.270       .  A
Cd1453     O1675   2.112       .  S
Cd1454     O1458   2.029   1_455  S
Cd1454     O1467   2.090   1_455  S
O1455      C1465   1.277       .  A
O1455     Cd1673   2.112   1_554  S
O1456     Cd1457   1.984       .  S
Cd1457     O1459   2.056       .  S
O1458      C1465   1.272       .  A
C1460      O1464   1.275       .  A
C1461      C1470   1.474       .  S
O1464     Zn1671   2.005   1_554  S
C1466      C1532   1.470       .  S
C1466      O1467   1.274       .  A
C1468      C1469   1.399       .  A
C1468      C1473   1.412       .  A
C1468      C1521   1.496       .  S
C1469      C1470   1.391       .  A
C1469      H1474   1.084       .  S
C1470      C1471   1.405       .  A
C1471      C1472   1.420       .  A
C1471      H1475   1.076       .  S
C1472      C1473   1.432       .  A
C1472      C1477   1.529       .  S
C1473      H1476   1.076       .  S
C1477      C1478   1.441       .  A
C1477      C1482   1.426       .  A
C1478      C1479   1.413       .  A
C1478      H1483   1.076       .  S
C1479      C1480   1.390       .  A
C1480      C1481   1.390       .  A
C1480      H1484   1.084       .  S
C1481      N1486   1.439       .  S
C1481      C1482   1.397       .  A
C1482      H1485   1.077       .  S
N1486      C1490   1.360       .  A
N1486      C1487   1.353       .  A
C1487      C1518   1.458       .  S
C1488      C1489   1.367       .  A
C1488      H1491   1.082       .  S
C1489      H1492   1.083       .  S
N1493      C1497   1.368       .  A
N1493      C1494   1.368       .  A
N1493      C1527   1.453       .  S
C1494      C1495   1.377       .  A
C1494      C1515   1.463       .  S
C1495      C1496   1.351       .  A
C1495      H1498   1.083       .  S
C1496      C1497   1.379       .  A
C1496      H1499   1.077       .  S
O1500      C1516   1.279       .  A
O1500     Zn1506   2.052       .  S
C1501      O1514   1.274       .  A
O1502      C1515   1.277       .  A
O1503      C1521   1.275       .  A
O1504     Cd1508   2.070       .  S
O1505     Cd1508   2.055       .  S
Zn1506     O1517   2.045       .  S
Zn1506     O1739   2.047   1_554  S
Zn1506     O1731   1.922       .  S
O1507      C1518   1.270       .  A
Cd1508     O1730   2.055       .  S
Cd1509     O1513   2.094       .  S
O1510      C1520   1.275       .  A
O1510     Cd1728   2.055       .  S
O1511     Zn1726   1.922       .  S
Cd1512     O1514   2.057       .  S
O1513      C1520   1.277       .  A
C1515      O1519   1.280       .  A
C1516      C1536   1.470       .  S
O1519     Zn1726   2.047       .  S
C1521      O1522   1.280       .  A
C1523      C1524   1.418       .  A
C1523      C1528   1.396       .  A
C1523      C1534   1.505       .  S
C1524      C1525   1.420       .  A
C1524      H1529   1.082       .  S
C1525      C1526   1.426       .  A
C1526      C1527   1.404       .  A
C1526      H1530   1.083       .  S
C1527      C1528   1.397       .  A
C1528      H1531   1.080       .  S
C1532      C1533   1.413       .  A
C1532      C1537   1.400       .  A
C1533      C1534   1.414       .  A
C1533      H1538   1.082       .  S
C1534      C1535   1.427       .  A
C1535      C1536   1.394       .  A
C1535      H1539   1.083       .  S
C1536      C1537   1.382       .  A
N1541      C1545   1.363       .  A
N1541      C1542   1.362       .  A
N1541      C1582   1.452       .  S
C1542      C1543   1.383       .  A
C1542      C1570   1.483       .  S
C1543      C1544   1.361       .  A
C1543      H1546   1.082       .  S
C1544      C1545   1.380       .  A
C1544      H1547   1.084       .  S
C1545      C1666   1.463       .  S
N1548      C1552   1.369       .  A
N1548      C1549   1.370       .  A
N1548      C1646   1.453       .  S
C1549      C1550   1.377       .  A
C1549      C1573   1.468       .  S
C1550      C1551   1.353       .  A
C1550      H1553   1.083       .  S
C1551      C1552   1.385       .  A
C1551      H1554   1.083       .  S
C1552      C1685   1.478       .  S
O1555      C1571   1.269       .  A
O1555     Zn1561   1.978       .  S
C1556      C1655   1.454       .  S
C1556      O1572   1.268       .  A
C1556      O1569   1.271       .  A
O1557      C1570   1.278       .  A
O1557     Cd1564   2.119       .  S
O1558      C1576   1.275       .  A
O1558     Cd1567   2.032       .  S
O1559      C1573   1.278       .  A
O1559     Cd1563   2.086       .  S
O1560      C1571   1.274       .  A
O1560     Cd1563   2.059       .  S
Zn1561     O1572   1.989       .  S
Zn1561     O1574   1.982       .  S
Zn1561     O1566   1.912       .  S
O1562      C1573   1.272       .  A
O1562     Cd1567   2.074       .  S
Cd1563     O1565   2.104       .  S
Cd1563     O1566   2.009       .  S
Cd1564     O1568   2.053       .  S
Cd1564     O1577   2.119       .  S
Cd1564     O1566   2.020       .  S
O1565      C1575   1.277       .  A
O1566     Cd1567   1.984       .  S
Cd1567     O1569   2.061       .  S
O1568      C1575   1.277       .  A
C1570      O1574   1.270       .  A
C1571      C1591   1.454       .  S
C1575      C1662   1.483       .  S
C1576      C1633   1.482       .  S
C1576      O1577   1.280       .  A
C1578      C1589   1.507       .  S
C1579      C1580   1.397       .  A
C1580      N1596   1.448       .  S
C1580      C1581   1.398       .  A
C1581      C1582   1.423       .  A
C1581      H1585   1.083       .  S
C1582      C1583   1.420       .  A
C1587      C1588   1.400       .  A
C1587      C1592   1.387       .  A
C1587      C1611   1.474       .  S
C1588      C1589   1.429       .  A
C1588      H1593   1.082       .  S
C1589      C1590   1.406       .  A
C1590      C1591   1.408       .  A
C1590      H1594   1.082       .  S
C1591      C1592   1.397       .  A
C1592      H1595   1.086       .  S
N1596      C1600   1.366       .  A
N1596      C1597   1.363       .  A
C1597      C1598   1.378       .  A
C1597      C1625   1.461       .  S
C1598      C1599   1.355       .  A
C1598      H1601   1.083       .  S
C1599      C1600   1.378       .  A
C1599      H1602   1.076   1_556  S
C1600      C1740   1.470       .  S
N1603      C1607   1.359       .  A
N1603      C1604   1.355       .  A
N1603      C1644   1.442       .  S
C1604      C1628   1.461       .  S
C1605      C1606   1.367       .  A
C1605      H1608   1.083       .  S
C1606      H1609   1.082       .  S
C1607      C1721   1.463       .  S
O1610     Zn1616   2.037       .  S
C1611      O1627   1.280       .  A
C1611      O1624   1.274       .  A
O1612      C1625   1.276       .  A
O1612     Cd1619   2.043       .  S
O1613      C1631   1.275       .  A
O1613     Cd1622   2.052       .  S
O1614      C1628   1.271       .  A
O1614     Cd1618   2.056       .  S
O1615      C1626   1.274       .  A
O1615     Cd1618   2.064       .  S
Zn1616     O1627   2.057       .  S
Zn1616     O1629   2.039       .  S
Zn1616     O1621   1.923       .  S
O1617     Cd1622   2.078       .  S
Cd1618     O1620   2.052       .  S
Cd1619     O1632   2.092       .  S
Cd1619     O1621   1.995       .  S
O1620      C1630   1.276       .  A
O1621     Cd1622   1.968       .  S
Cd1622     O1624   2.064       .  S
O1623      C1630   1.278       .  A
C1625      O1629   1.279       .  A
C1626      C1710   1.464       .  S
C1630      C1637   1.496       .  S
C1631      C1717   1.467       .  S
C1631      O1632   1.277       .  A
C1633      C1634   1.408       .  A
C1633      C1638   1.394       .  A
C1634      C1635   1.425       .  A
C1634      H1639   1.078       .  S
C1635      C1636   1.432       .  A
C1635      C1642   1.526   1_556  S
C1636      C1637   1.409       .  A
C1636      H1640   1.078       .  S
C1637      C1638   1.394       .  A
C1638      H1641   1.085       .  S
C1643      C1644   1.398       .  A
C1644      C1645   1.393       .  A
C1645      C1646   1.394       .  A
C1645      H1649   1.083       .  S
C1646      C1647   1.414       .  A
N1651      C1655   1.366       .  A
N1651      C1652   1.368       .  A
N1651      C1699   1.454       .  S
C1652      C1653   1.383       .  A
C1652      C1680   1.480       .  S
C1653      C1654   1.356       .  A
C1653      H1656   1.082       .  S
C1654      C1655   1.378       .  A
C1654      H1657   1.084       .  S
N1658      C1662   1.365       .  A
N1658      C1659   1.363       .  A
N1658      C1745   1.451       .  S
C1659      C1660   1.375       .  A
C1659      C1683   1.472       .  S
C1660      C1661   1.360       .  A
C1660      H1663   1.082       .  S
C1661      C1662   1.387       .  A
C1661      H1664   1.083       .  S
O1665      C1681   1.274       .  A
O1665     Zn1671   2.009       .  S
C1666      O1682   1.274       .  A
C1666      O1679   1.269       .  A
O1667      C1680   1.273       .  A
O1668      C1686   1.271       .  A
O1669      C1683   1.279       .  A
O1669     Cd1673   2.099       .  S
O1670     Cd1673   2.089       .  S
Zn1671     O1682   2.029       .  S
Zn1671     O1676   1.920       .  S
O1672      C1683   1.270       .  A
Cd1674     O1678   2.029   1_455  S
Cd1674     O1687   2.090   1_455  S
O1675      C1685   1.277       .  A
O1676     Cd1677   1.984       .  S
Cd1677     O1679   2.056       .  S
O1678      C1685   1.272       .  A
C1680      O1684   1.275       .  A
C1681      C1690   1.474       .  S
C1686      C1752   1.470       .  S
C1686      O1687   1.274       .  A
C1688      C1689   1.399       .  A
C1688      C1693   1.412       .  A
C1688      C1741   1.496       .  S
C1689      C1690   1.391       .  A
C1689      H1694   1.084       .  S
C1690      C1691   1.405       .  A
C1691      C1692   1.420       .  A
C1691      H1695   1.076       .  S
C1692      C1693   1.432       .  A
C1692      C1697   1.529       .  S
C1693      H1696   1.076       .  S
C1697      C1698   1.441       .  A
C1697      C1702   1.426       .  A
C1698      C1699   1.413       .  A
C1698      H1703   1.076       .  S
C1699      C1700   1.390       .  A
C1700      C1701   1.390       .  A
C1700      H1704   1.084       .  S
C1701      N1706   1.439       .  S
C1701      C1702   1.397       .  A
C1702      H1705   1.077       .  S
N1706      C1710   1.360       .  A
N1706      C1707   1.353       .  A
C1707      C1738   1.458       .  S
C1708      C1709   1.367       .  A
C1708      H1711   1.082       .  S
C1709      H1712   1.083       .  S
N1713      C1717   1.368       .  A
N1713      C1714   1.368       .  A
N1713      C1747   1.453       .  S
C1714      C1715   1.377       .  A
C1714      C1735   1.463       .  S
C1715      C1716   1.351       .  A
C1715      H1718   1.083       .  S
C1716      C1717   1.379       .  A
C1716      H1719   1.077       .  S
O1720      C1736   1.279       .  A
O1720     Zn1726   2.052       .  S
C1721      O1734   1.274       .  A
O1722      C1735   1.277       .  A
O1723      C1741   1.275       .  A
O1724     Cd1728   2.070       .  S
O1725     Cd1728   2.055       .  S
Zn1726     O1737   2.045       .  S
O1727      C1738   1.270       .  A
Cd1729     O1733   2.094       .  S
O1730      C1740   1.275   1_554  A
Cd1732     O1734   2.057       .  S
O1733      C1740   1.277       .  A
C1735      O1739   1.280       .  A
C1736      C1756   1.470       .  S
C1741      O1742   1.280       .  A
C1743      C1744   1.418       .  A
C1743      C1748   1.396       .  A
C1743      C1754   1.505       .  S
C1744      C1745   1.420       .  A
C1744      H1749   1.082       .  S
C1745      C1746   1.426       .  A
C1746      C1747   1.404       .  A
C1746      H1750   1.083       .  S
C1747      C1748   1.397       .  A
C1748      H1751   1.080       .  S
C1752      C1753   1.413       .  A
C1752      C1757   1.400       .  A
C1753      C1754   1.414       .  A
C1753      H1758   1.082       .  S
C1754      C1755   1.427       .  A
C1755      C1756   1.394       .  A
C1755      H1759   1.083       .  S
C1756      C1757   1.382       .  A
