geometry optimzed in LAMMPS
_audit_creation_date              2020-11-30 
_audit_creation_method            'lammps2cif' 
_symmetry_space_group_name_H-M    'P1' 
_symmetry_Int_Tables_number       1 
_symmetry_cell_setting            triclinic 
loop_ 
_symmetry_equiv_pos_as_xyz 
  x,y,z 
_cell_length_a                    40.62377046202504 
_cell_length_b                    40.86962883455263 
_cell_length_c                    25.0975466451638 
_cell_angle_alpha                 90.23561738132152 
_cell_angle_beta                  89.4028312183019 
_cell_angle_gamma                 120.28091368404827 
loop_ 
_atom_site_label 
_atom_site_type_symbol 
_atom_site_fract_x 
_atom_site_fract_y 
_atom_site_fract_z 
_atom_site_charge 
C1          C  0.42847126  0.24714177  0.09990097     0.03220
C2          C  0.43925142  0.23806372  0.05037435    -0.12930
C3          C  0.43438449  0.20166580  0.04240855     0.00720
C4          C  0.41809407  0.17462977  0.08253403    -0.11450
C5          C  0.41052855  0.18389116  0.13264629     0.03220
C6          C  0.41625927  0.22021225  0.14158717    -0.10870
H7          H  0.45132822  0.25878821  0.01863839     0.08810
H8          H  0.41591492  0.14726192  0.07659640     0.06340
H9          H  0.41237419  0.22771682  0.18163662     0.06190
C10         C  0.24137556  0.80022050  0.40567066     0.03220
C11         C  0.21480572  0.78351142  0.36400720    -0.12930
C12         C  0.17836888  0.75262901  0.37381568     0.00720
C13         C  0.16864541  0.73735456  0.42470074    -0.11450
C14         C  0.19554366  0.74993651  0.46501208     0.03220
C15         C  0.23202442  0.78188582  0.45616765    -0.10870
H16         H  0.22261242  0.79375362  0.32349412     0.08810
H17         H  0.14114166  0.71196746  0.43127150     0.06340
H18         H  0.25262894  0.79198789  0.48797221     0.06190
C19         C  0.72762767  0.18143317  0.09313575     0.03220
C20         C  0.73572556  0.20121069  0.04383206    -0.12930
C21         C  0.77185089  0.23357893  0.03486126     0.00720
C22         C  0.79961531  0.24539585  0.07381270    -0.11450
C23         C  0.79173216  0.22786734  0.12331763     0.03220
C24         C  0.75584650  0.19606980  0.13303577    -0.10870
H25         H  0.71460365  0.19176232  0.01279831     0.08810
H26         H  0.82672652  0.27121649  0.06717672     0.06340
H27         H  0.74968503  0.18352676  0.17242986     0.06190
C28         C  0.53758042  0.73377821  0.40659647     0.03220
C29         C  0.54898458  0.76050921  0.36477632    -0.12930
C30         C  0.55483303  0.79682206  0.37393609     0.00720
C31         C  0.54815509  0.80632881  0.42438592    -0.11450
C32         C  0.53230352  0.77938783  0.46471732     0.03220
C33         C  0.52734996  0.74293452  0.45652902    -0.10870
H34         H  0.55224764  0.75287727  0.32450667     0.08810
H35         H  0.55052517  0.83377329  0.43045609     0.06340
H36         H  0.51565771  0.72225019  0.48835458     0.06190
C37         C  0.79279999  0.54184447  0.09559051     0.03220
C38         C  0.77112804  0.52904511  0.04818132    -0.12930
C39         C  0.74110372  0.53623603  0.03970387     0.00720
C40         C  0.73264582  0.55550492  0.07820377    -0.11450
C41         C  0.75152445  0.56574810  0.12668451     0.03220
C42         C  0.78230815  0.55993742  0.13476512    -0.10870
H43         H  0.77678538  0.51285755  0.01901881     0.08810
H44         H  0.70788179  0.55858713  0.07252744     0.06340
H45         H  0.79727176  0.56858916  0.17226741     0.06190
C46         C  0.17544337  0.44221193  0.40347313     0.03220
C47         C  0.18577511  0.42422200  0.36393946    -0.12930
C48         C  0.21580392  0.41728456  0.37219020     0.00720
C49         C  0.23439131  0.42676325  0.42089796    -0.11450
C50         C  0.22638870  0.44629383  0.45954974     0.03220
C51         C  0.19685927  0.45424373  0.45114821    -0.10870
H52         H  0.17130630  0.41652443  0.32601554     0.08810
H53         H  0.25887205  0.42320145  0.42648076     0.06340
H54         H  0.19144560  0.47049067  0.48051132     0.06190
O55         O  0.93521744  0.36357525  0.24311140    -0.80800
O56         O  0.98875855  0.48992095  0.42651950    -0.65490
O57         O  0.94986740  0.40394406  0.33609475    -1.12090
C58         C  0.84522481  0.42619969  0.33358477     1.06090
O59         O  0.93601614  0.45849623  0.47580374    -0.78690
O60         O  0.86733364  0.39847428  0.44281334    -0.66270
Ni61       Ni  0.97971008  0.40492759  0.27608730     1.34870
C62         C  0.86097293  0.36839641  0.41891308     0.84830
O63         O  0.01712119  0.44714192  0.38980392    -0.79230
O64         O  0.02860039  0.44304039  0.30471174    -0.89510
C65         C  0.97156330  0.48255673  0.47165416     0.84400
O66         O  0.97195342  0.44298927  0.24413299    -0.67710
O67         O  0.85809267  0.44482388  0.37687302    -0.87000
C68         C  0.98271021  0.47546002  0.26462697     0.85230
C69         C  0.03891253  0.44731264  0.35321624     1.06800
H70         H  0.93113006  0.47013462  0.34413608     0.38600
O71         O  0.92583762  0.44853682  0.36587127    -1.09660
O72         O  0.87728600  0.36889826  0.37533180    -0.66310
Ni73       Ni  0.90468547  0.40618542  0.32119269     1.26350
O74         O  0.99188082  0.48251739  0.31454786    -0.66540
O75         O  0.86088836  0.41030230  0.30842682    -0.78830
C76         C  0.89925658  0.34885957  0.24866398     0.84610
O77         O  0.88416844  0.36389366  0.27610663    -0.66010
Ni78       Ni  0.89757301  0.45117458  0.42460252     1.27450
Ni79       Ni  0.97148538  0.44854312  0.37794834     1.26060
H80         H  0.94408734  0.38244907  0.35834803     0.39160
O81         O  0.02864579  0.52502359  0.01527834    -0.80800
O82         O  0.08449198  0.61108858  0.22389544    -0.65490
O83         O  0.04089507  0.53194922  0.12466647    -1.12090
C84         C  0.92994095  0.53698334  0.14393294     1.06090
O85         O  0.03612939  0.61813641  0.25147442    -0.78690
O86         O  0.99695898  0.53863789  0.25008692    -0.66270
Ni87       Ni  0.06862568  0.53222012  0.06330788     1.34870
C88         C  0.98563559  0.50619895  0.22903612     0.84830
O89         O  0.10470736  0.56412065  0.18470126    -0.79230
O90         O  0.10989640  0.53870375  0.10734616    -0.89510
C91         C  0.07155114  0.62904581  0.24904336     0.84400
O92         O  0.09654596  0.58545153  0.04796096    -0.67710
O93         O  0.94076518  0.54073022  0.19209580    -0.87000
C94         C  0.10581296  0.61420438  0.07721174     0.85230
C95         C  0.12178520  0.55252358  0.15367465     1.06800
H96         H  0.02685486  0.59988723  0.13784957     0.38600
O97         O  0.01959808  0.57763942  0.15938473    -1.09660
O98         O  0.97611360  0.49941330  0.17909358    -0.66310
Ni99       Ni  0.99601200  0.53388219  0.11586471     1.26350
O100        O  0.09307491  0.61168558  0.12420280    -0.66540
O101        O  0.95117677  0.53713201  0.10661013    -0.78830
C102        C  0.99327341  0.50062836  0.02023857     0.84610
O103        O  0.97662587  0.49309095  0.06581809    -0.66010
Ni104      Ni  0.99050001  0.57776561  0.21952963     1.27450
Ni105      Ni  0.06288088  0.57170740  0.17374376     1.26060
H106        H  0.03495481  0.50897617  0.14338943     0.39160
O107        O  0.40973473  0.04461698  0.24825661    -0.80800
O108        O  0.47744849  0.98630772  0.43266127    -0.65490
O109        O  0.43127104  0.02621953  0.34282582    -1.12090
C110        C  0.55820023  0.13230179  0.34681249     1.06090
O111        O  0.49650697  0.03758082  0.48314055    -0.78690
O112        O  0.50663381  0.10714465  0.45300802    -0.66270
Ni113      Ni  0.40418366  0.99913565  0.28094242     1.34870
C114        C  0.48183901  0.11240191  0.43037161     0.84830
O115        O  0.40650726  0.95768431  0.39397116    -0.79230
O116        O  0.39101962  0.94978112  0.30862572    -0.89510
C117        C  0.48656634  0.00273315  0.47809005     0.84400
O118        O  0.45058735  0.00585080  0.25009244    -0.67710
O119        O  0.56399931  0.11777552  0.38812221    -0.87000
C120        C  0.47138911  0.99399562  0.27041975     0.85230
C121        C  0.38433888  0.93822192  0.35672144     1.06800
H122        H  0.51675617  0.04614073  0.35159437     0.38600
O123        O  0.49973965  0.05031600  0.37399516    -1.09660
O124        O  0.46568711  0.09565519  0.38771184    -0.66310
Ni125      Ni  0.47875066  0.07242172  0.33143764     1.26350
O126        O  0.46909631  0.98515107  0.32051946    -0.66540
O127        O  0.52660010  0.11747254  0.32211161    -0.78830
C128        C  0.42945010  0.08006608  0.25774536     0.84610
O129        O  0.45738539  0.09412295  0.28883426    -0.66010
Ni130      Ni  0.52933739  0.07717445  0.43396968     1.27450
Ni131      Ni  0.45383230  0.00395291  0.38410482     1.26060
H132        H  0.41434121  0.03049955  0.36529378     0.39160
O133        O  0.47399621  0.94622431  0.02106485    -0.80800
O134        O  0.50817552  0.88802760  0.21915539    -0.65490
O135        O  0.46899163  0.93309033  0.13024668    -1.12090
C136        C  0.58584373  0.04375265  0.14752391     1.06090
O137        O  0.55811342  0.93709633  0.25689020    -0.78690
O138        O  0.51906639  0.97752277  0.25470558    -0.66270
Ni139      Ni  0.44023560  0.90664364  0.06954151     1.34870
C140        C  0.49841995  0.98948860  0.23417415     0.84830
O141        O  0.43967527  0.86626011  0.18380133    -0.79230
O142        O  0.40466576  0.86608974  0.11451986    -0.89510
C143        C  0.53672236  0.90161032  0.24915907     0.84400
O144        O  0.46286989  0.87644868  0.05156093    -0.67710
O145        O  0.57935965  0.03249873  0.19574074    -0.87000
C146        C  0.48605253  0.86972427  0.07606462     0.85230
C147        C  0.40895121  0.85148650  0.15692717     1.06800
H148        H  0.55321901  0.95035767  0.14017135     0.38600
O149        O  0.53688930  0.95559072  0.16249195    -1.09660
O150        O  0.50072494  0.99818275  0.18399009    -0.66310
Ni151      Ni  0.51553931  0.97876874  0.12056165     1.26350
O152        O  0.50075801  0.88523916  0.12000971    -0.66540
O153        O  0.56338497  0.02429646  0.11061831    -0.78830
C154        C  0.48398158  0.98106488  0.02614691     0.84610
O155        O  0.49300474  0.99736699  0.07164568    -0.66010
Ni156      Ni  0.56484944  0.98285874  0.22380774     1.27450
Ni157      Ni  0.48844167  0.91034634  0.17450372     1.26060
H158        H  0.45199345  0.93790052  0.15168704     0.39160
C159        C  0.62321159  0.33695482  0.29227017     0.03220
C160        C  0.66213557  0.36420707  0.29079578    -0.12930
C161        C  0.68934945  0.35300646  0.29252749     0.00720
C162        C  0.67779433  0.31453476  0.29681918    -0.11450
C163        C  0.63912155  0.28739320  0.29835872     0.03220
C164        C  0.61177744  0.29858372  0.29616906    -0.10870
H165        H  0.67128287  0.39412046  0.28946292     0.08810
H166        H  0.69884694  0.30575762  0.29970302     0.06340
H167        H  0.58169372  0.27752250  0.29854488     0.06190
C168        C  0.34487111  0.64599609  0.19116246     0.03220
C169        C  0.30621922  0.61822004  0.18925052    -0.12930
C170        C  0.27854939  0.62878022  0.18830635     0.00720
C171        C  0.28936835  0.66717642  0.18813518    -0.11450
C172        C  0.32788212  0.69488141  0.18984719     0.03220
C173        C  0.35571168  0.68426122  0.19088245    -0.10870
H174        H  0.29767781  0.58843806  0.18850757     0.08810
H175        H  0.26788083  0.67545207  0.18670342     0.06340
H176        H  0.38570497  0.70570020  0.19134226     0.06190
O177        O  0.45090680  0.50315562  0.02027600    -0.80800
O178        O  0.35220434  0.46249472  0.21291256    -0.65490
O179        O  0.44122324  0.50563474  0.12957298    -1.12090
C180        C  0.43679372  0.39078595  0.14677497     1.06090
O181        O  0.35486822  0.41605803  0.25524206    -0.78690
O182        O  0.43511438  0.45702480  0.25254777    -0.66270
Ni183      Ni  0.44604001  0.53634876  0.07039567     1.34870
C184        C  0.46821604  0.47774252  0.23192724     0.84830
O185        O  0.39974120  0.53229708  0.17994434    -0.79230
O186        O  0.44180762  0.57094129  0.11773033    -0.89510
C187        C  0.33829149  0.43472910  0.24462877     0.84400
O188        O  0.39344377  0.51641062  0.05215525    -0.67710
O189        O  0.43212506  0.39780603  0.19487882    -0.87000
C190        C  0.36252805  0.49054383  0.07270121     0.85230
C191        C  0.41927646  0.56458867  0.15727735     1.06800
H192        H  0.37464034  0.42059161  0.13834650     0.38600
O193        O  0.39580986  0.43748521  0.16052317    -1.09660
O194        O  0.47535848  0.47494474  0.18205499    -0.66310
Ni195      Ni  0.44133269  0.45996456  0.11893898     1.26350
O196        O  0.36200897  0.47215128  0.11350892    -0.66540
O197        O  0.43989902  0.41281914  0.10918484    -0.78830
C198        C  0.47497503  0.49198366  0.02393491     0.84610
O199        O  0.48287385  0.48327358  0.06912971    -0.66010
Ni200      Ni  0.39542639  0.41069914  0.22268605     1.27450
Ni201      Ni  0.39682888  0.48452850  0.17121584     1.26060
H202        H  0.46206744  0.52205088  0.15251012     0.39160
O203        O  0.61251862  0.56850508  0.24412038    -0.80800
O204        O  0.48457172  0.49702123  0.42970476    -0.65490
O205        O  0.57189605  0.54539800  0.33923383    -1.12090
C206        C  0.55011726  0.41893929  0.33673504     1.06090
O207        O  0.51612807  0.47623331  0.47771053    -0.78690
O208        O  0.57472741  0.46511478  0.44442515    -0.66270
Ni209      Ni  0.57169312  0.57276820  0.27801456     1.34870
C210        C  0.60564259  0.49151946  0.42465122     0.84830
O211        O  0.52711922  0.56837532  0.39255044    -0.79230
O212        O  0.53459616  0.58462795  0.30734212    -0.89510
C213        C  0.49228925  0.48773958  0.47454819     0.84400
O214        O  0.53238653  0.52658972  0.24710392    -0.67710
O215        O  0.52754453  0.41156020  0.37655993    -0.87000
C216        C  0.49938715  0.50531595  0.26765737     0.85230
C217        C  0.53002172  0.59093212  0.35585232     1.06800
H218        H  0.50637476  0.46042563  0.34446513     0.38600
O219        O  0.52702133  0.47653118  0.36788235    -1.09660
O220        O  0.60624375  0.51042045  0.38436678    -0.66310
Ni221      Ni  0.57163420  0.49894238  0.32654474     1.26350
O222        O  0.49226674  0.50751884  0.31768439    -0.66540
O223        O  0.56943021  0.45171665  0.31540342    -0.78830
C224        C  0.62973263  0.55034333  0.25391314     0.84610
O225        O  0.61643568  0.52235253  0.28526676    -0.66010
Ni226      Ni  0.52219190  0.44468788  0.42566221     1.27450
Ni227      Ni  0.52628190  0.52168124  0.38061247     1.26060
H228        H  0.59296038  0.56214957  0.36167388     0.39160
C229        C  0.39916848  0.64418587  0.14863479    -0.21210
C230        C  0.37345808  0.63432002  0.19140376    -0.09250
C231        C  0.37100058  0.60837568  0.22973290     0.29600
C232        C  0.39054131  0.58900421  0.22181541    -0.21210
C233        C  0.41207725  0.59476544  0.17499525    -0.09270
C234        C  0.41856159  0.62451943  0.14027072     0.29610
F235        F  0.43994123  0.63173940  0.09521541    -0.19790
H236        H  0.40149253  0.66453680  0.11910843     0.17980
H237        H  0.38584397  0.56695007  0.24987879     0.17980
F238        F  0.34706307  0.59940959  0.27230392    -0.19780
C239        C  0.57009512  0.33898509  0.33849106    -0.21210
C240        C  0.59510504  0.34936615  0.29471227    -0.09250
C241        C  0.59728007  0.37624966  0.25823266     0.29600
C242        C  0.57829741  0.39587675  0.26901809    -0.21210
C243        C  0.55741771  0.38929094  0.31671242    -0.09270
C244        C  0.55119308  0.35879408  0.34960826     0.29610
F245        F  0.53048765  0.35081181  0.39544878    -0.19790
H246        H  0.56793530  0.31798652  0.36672445     0.17980
H247        H  0.58272729  0.41851996  0.24227732     0.17980
F248        F  0.62024052  0.38565056  0.21449235    -0.19780
C249        C  0.38285579  0.79815619  0.22093019    -0.21210
C250        C  0.37851512  0.81347247  0.17324461    -0.09250
C251        C  0.35044958  0.78936655  0.13675493     0.29600
C252        C  0.33114425  0.75025987  0.14477821    -0.21210
C253        C  0.33969298  0.73510385  0.18890128    -0.09270
C254        C  0.36393598  0.75919267  0.22843716     0.29610
F255        F  0.37156317  0.74487520  0.27226133    -0.19790
H256        H  0.40357082  0.81602510  0.25030251     0.17980
H257        H  0.31206166  0.73175958  0.61428980     0.17980
F258        F  0.34453107  0.80291490  0.09072991    -0.19780
C259        C  0.58388283  0.18272882  0.27845445    -0.21210
C260        C  0.58800981  0.16995106  0.32850744    -0.09250
C261        C  0.61531184  0.19597333  0.36418099     0.29600
C262        C  0.63464942  0.23457621  0.35210040    -0.21210
C263        C  0.62673617  0.24729524  0.30481355    -0.09270
C264        C  0.60273986  0.22119006  0.26692551     0.29610
F265        F  0.59547386  0.23314466  0.22045956    -0.19790
H266        H  0.56356570  0.16324332  0.24989647     0.17980
H267        H  0.65338259  0.25469654  0.88140026     0.17980
F268        F  0.62038624  0.18483538  0.41281594    -0.19780
C269        C  0.17438879  0.57896726  0.21856971    -0.21210
C270        C  0.15957840  0.55979783  0.17024031    -0.09250
C271        C  0.18426705  0.55638572  0.13359256     0.29600
C272        C  0.22350509  0.57658619  0.14194754    -0.21210
C273        C  0.23815596  0.60004824  0.18660621    -0.09270
C274        C  0.21348648  0.59946901  0.22634778     0.29610
F275        F  0.22739476  0.62120849  0.27064468    -0.19790
H276        H  0.15613454  0.58135339  0.24820151     0.17980
H277        H  0.24251881  0.57644726  0.61145257     0.17980
F278        F  0.17115999  0.53686674  0.08734395    -0.19780
C279        C  0.79374332  0.39760831  0.26696821    -0.21210
C280        C  0.80816660  0.41907679  0.31375513    -0.09250
C281        C  0.78369791  0.42587313  0.34622622     0.29600
C282        C  0.74468995  0.40683246  0.33602493    -0.21210
C283        C  0.73002533  0.38114137  0.29363787    -0.09270
C284        C  0.75485042  0.37834081  0.25732396     0.29610
F285        F  0.74109685  0.35439652  0.21512959    -0.19790
H286        H  0.81196154  0.39267852  0.24035462     0.17980
H287        H  0.72564626  0.40949546  0.36394081     0.17980
F288        F  0.79654104  0.44758356  0.39071728    -0.19780
C289        C  0.13829925  0.45997004  0.34191290    -0.21210
C290        C  0.14318807  0.44908841  0.39312241    -0.09250
C291        C  0.11524760  0.44171852  0.43234520     0.29600
C292        C  0.08251351  0.44329780  0.41967546    -0.21210
C293        C  0.07651124  0.45176096  0.36755699    -0.09270
C294        C  0.10536139  0.46104672  0.32905265     0.29610
F295        F  0.10153757  0.47047023  0.27862007    -0.19790
H296        H  0.15969922  0.46681651  0.31114552     0.17980
H297        H  0.06085149  0.43590877  0.45021963     0.17980
F298        F  0.11817074  0.43044898  0.48199098    -0.19780
C299        C  0.29176099  0.44792345  0.56314407    -0.21210
C300        C  0.32537290  0.48182042  0.04944241    -0.09250
C301        C  0.32251740  0.50761221  0.01534316     0.29600
C302        C  0.28749893  0.49815972  0.49239596    -0.21210
C303        C  0.25481380  0.46287154  0.50240661    -0.09270
C304        C  0.25695217  0.43840732  0.53958985     0.29610
F305        F  0.22620827  0.40357810  0.54875869    -0.19790
H306        H  0.29273369  0.42780746  0.59010325     0.17980
H307        H  0.28681258  0.51698668  0.96264550     0.17980
F308        F  0.35367395  0.54138139  0.00261926    -0.19780
C309        C  0.24943962  0.43690676  0.28598544    -0.21210
C310        C  0.23563926  0.41051765  0.32765215    -0.09250
C311        C  0.25142916  0.38711334  0.33509185     0.29600
C312        C  0.28412642  0.39411299  0.30669939    -0.21210
C313        C  0.30102740  0.42402192  0.26981097    -0.09270
C314        C  0.28180496  0.44374966  0.25725056     0.29610
F315        F  0.29542603  0.47146258  0.21966514    -0.19790
H316        H  0.23776167  0.45523445  0.27941444     0.17980
H317        H  0.29725589  0.37740136  0.31565745     0.17980
F318        F  0.23767375  0.36029216  0.37392210    -0.19780
C319        C  0.83113560  0.52572311  0.15743814    -0.21210
C320        C  0.82550177  0.53565067  0.10597261    -0.09250
C321        C  0.85293828  0.54239600  0.06623984     0.29600
C322        C  0.88575169  0.54087590  0.07846787    -0.21210
C323        C  0.89240867  0.53311247  0.13064391    -0.09270
C324        C  0.86419548  0.52472370  0.16985285     0.29610
F325        F  0.86869462  0.51613019  0.22045466    -0.19790
H326        H  0.81016275  0.51940793  0.18866517     0.17980
H327        H  0.90690942  0.54760438  0.04736752     0.17980
F328        F  0.84940164  0.55286768  0.01635226    -0.19780
C329        C  0.71614246  0.59640736  0.16174554    -0.21210
C330        C  0.73191870  0.57318193  0.17092316    -0.09250
C331        C  0.71823376  0.54783243  0.21401689     0.29600
C332        C  0.68617215  0.54221111  0.24237417    -0.21210
C333        C  0.66698377  0.56155774  0.22831144    -0.09270
C334        C  0.68365762  0.59046758  0.18978682     0.29610
F335        F  0.66730290  0.61116292  0.17649799    -0.19790
H336        H  0.72652601  0.61634440  0.12887565     0.18280
H337        H  0.67504960  0.52077957  0.27331331     0.17980
F338        F  0.73255961  0.52486258  0.22438702    -0.19780
C339        C  0.67636545  0.53412978  0.93473781    -0.21210
C340        C  0.64271292  0.50030340  0.44832841    -0.09250
C341        C  0.64541214  0.47464156  0.48291452     0.29600
C342        C  0.68024276  0.48418963  0.00648753    -0.21210
C343        C  0.71295142  0.51946335  0.99655551    -0.09270
C344        C  0.71103090  0.54376330  0.95886259     0.29610
F345        F  0.74182134  0.57856010  0.94968915    -0.19790
H346        H  0.67555024  0.55414585  0.90740990     0.17980
H347        H  0.68081706  0.46554362  0.03656891     0.17980
F348        F  0.61422462  0.44089084  0.49561867    -0.19780
C349        C  0.50672424  0.66234143  0.41870614    -0.21210
C350        C  0.53549280  0.69656689  0.39596150    -0.09250
C351        C  0.56223958  0.69494172  0.36117646     0.29600
C352        C  0.55884909  0.66030085  0.34723212    -0.21210
C353        C  0.53010104  0.62631848  0.36937318    -0.09270
C354        C  0.50439939  0.62757390  0.40623351     0.29610
F355        F  0.47657499  0.59520292  0.42909240    -0.19790
H356        H  0.48568280  0.66231580  0.44553655     0.17980
H357        H  0.57982608  0.66018572  0.32031164     0.17980
F358        F  0.59270475  0.72698062  0.34171438    -0.19780
C359        C  0.47935903  0.78546800  0.50103558    -0.21210
C360        C  0.51568651  0.79021441  0.50925772    -0.09250
C361        C  0.54053800  0.81877500  0.54432268     0.29600
C362        C  0.53042501  0.84396031  0.56689541    -0.21210
C363        C  0.49566143  0.84166660  0.05405550    -0.09270
C364        C  0.46949825  0.81108044  0.02262972     0.29610
F365        F  0.43480897  0.80651087  0.01139629    -0.19790
H366        H  0.46014959  0.76437916  0.97300085     0.17980
H367        H  0.55076877  0.86662640  0.59203905     0.17980
F368        F  0.57628839  0.82496812  0.55173686    -0.19780
C369        C  0.57784091  0.88719078  0.30670190    -0.21210
C370        C  0.54529140  0.87433116  0.27508128    -0.09250
C371        C  0.52130473  0.83486769  0.26747917     0.29600
C372        C  0.52802260  0.80928297  0.29474734    -0.21210
C373        C  0.55832672  0.82226663  0.33028204    -0.09270
C374        C  0.58440196  0.86136566  0.33405662     0.29610
F375        F  0.61428925  0.87453020  0.36787361    -0.19790
H376        H  0.59741374  0.91721622  0.31200496     0.17980
H377        H  0.50733318  0.77930038  0.29194503     0.17980
F378        F  0.48998184  0.82059412  0.23617724    -0.19780
C379        C  0.69018317  0.11785048  0.13741675    -0.21210
C380        C  0.69036370  0.14601589  0.10492758    -0.09250
C381        C  0.65496130  0.14008576  0.08660185     0.29600
C382        C  0.62081203  0.10682026  0.10032855    -0.21210
C383        C  0.62112479  0.07966035  0.13415616    -0.09270
C384        C  0.65617845  0.08562458  0.15267625     0.29610
F385        F  0.65771482  0.05940706  0.18397172    -0.19790
H386        H  0.71662118  0.12053857  0.15109361     0.17980
H387        H  0.59401853  0.10261268  0.08542845     0.17980
F388        F  0.65296702  0.16674315  0.05707523    -0.19780
C389        C  0.83395106  0.29366854  0.23745524    -0.21210
C390        C  0.87287685  0.31230759  0.22305320    -0.09250
C391        C  0.88512155  0.29593295  0.18401841     0.29600
C392        C  0.85827531  0.26411197  0.15605962    -0.21210
C393        C  0.81902784  0.24858703  0.16614976    -0.09270
C394        C  0.80721916  0.26221352  0.20925648     0.29610
F395        F  0.76963630  0.24819722  0.22009844    -0.19790
H396        H  0.82367535  0.30468556  0.26875274     0.17980
H397        H  0.86784658  0.25379468  0.12297720     0.17980
F398        F  0.92247455  0.31206920  0.17006765    -0.19780
C399        C  0.77766775  0.29203799  0.99901170    -0.21210
C400        C  0.78177600  0.26033234  0.99003201    -0.09250
C401        C  0.80910985  0.26329914  0.95253728     0.29600
C402        C  0.83398074  0.29817117  0.42824923    -0.21210
C403        C  0.83257034  0.33091879  0.44171288    -0.09270
C404        C  0.80293030  0.32706862  0.97558919     0.29610
F405        F  0.79911778  0.35739778  0.98772841    -0.19790
H406        H  0.75750887  0.29068991  0.02879479     0.17980
H407        H  0.85585616  0.29999015  0.40132125     0.17980
F408        F  0.81457310  0.23353641  0.94416297    -0.19780
C409        C  0.31495666  0.89537785  0.34588570    -0.21210
C410        C  0.34897644  0.90207934  0.36916694    -0.09250
C411        C  0.34769513  0.87570056  0.40623732     0.29600
C412        C  0.31291117  0.84257761  0.41818177    -0.21210
C413        C  0.27862809  0.83577717  0.39463107    -0.09270
C414        C  0.28022184  0.86336019  0.35920655     0.29610
F415        F  0.24801634  0.86036152  0.33871230    -0.19790
H416        H  0.31503832  0.91593203  0.31865533     0.17980
H417        H  0.31297376  0.82213828  0.44539554     0.17980
F418        F  0.38008748  0.88153503  0.42996525    -0.19780
C419        C  0.16481063  0.65698649  0.02527219    -0.21210
C420        C  0.13393030  0.65234322  0.05668259    -0.09250
C421        C  0.13107272  0.68447000  0.56903377     0.29600
C422        C  0.15623015  0.71955467  0.54541635    -0.21210
C423        C  0.18509004  0.72335660  0.51017419    -0.09270
C424        C  0.19048152  0.69222540  0.50284191     0.29610
F425        F  0.21747525  0.69464888  0.46810094    -0.19790
H426        H  0.16833604  0.63293557  0.01658371     0.17980
H427        H  0.15076079  0.74274757  0.55027923     0.17980
F428        F  0.10201610  0.68127158  0.60005286    -0.19780
C429        C  0.08733348  0.68533875  0.30632190    -0.21210
C430        C  0.09958846  0.66471738  0.27532864    -0.09250
C431        C  0.13919078  0.67909793  0.26869513     0.29600
C432        C  0.16536456  0.71138734  0.29606231    -0.21210
C433        C  0.15281051  0.72979652  0.33067798    -0.09270
C434        C  0.11372051  0.71762745  0.33387813     0.29610
F435        F  0.10098570  0.73528134  0.36702132    -0.19790
H436        H  0.05726627  0.67566270  0.31104773     0.17980
H437        H  0.19532772  0.72002779  0.29379786     0.17980
F438        F  0.15291999  0.66120691  0.23778679    -0.19780
C439        C  0.46008773  0.31854623  0.08736869    -0.21210
C440        C  0.43091459  0.28454969  0.11010806    -0.09250
C441        C  0.40405498  0.28662237  0.14411937     0.29600
C442        C  0.40759439  0.32147860  0.15710540    -0.21210
C443        C  0.43663525  0.35519208  0.13472630    -0.09270
C444        C  0.46257175  0.35349170  0.09883439     0.29610
F445        F  0.49073092  0.38560955  0.07587714    -0.19790
H446        H  0.48129103  0.31826050  0.06122147     0.17980
H447        H  0.38648258  0.32196467  0.18333769     0.17980
F448        F  0.37329026  0.25483656  0.16356722    -0.19780
C449        C  0.43512270  0.17144942  0.21431397    -0.21210
C450        C  0.40619479  0.15817636  0.17648315    -0.09250
C451        C  0.38126908  0.11890419  0.17118751     0.29600
C452        C  0.38819700  0.09340477  0.19876797    -0.21210
C453        C  0.41980829  0.10675570  0.23237530    -0.09270
C454        C  0.44207908  0.14618326  0.24201918     0.29610
F455        F  0.47216470  0.16085622  0.27567771    -0.19790
H456        H  0.45483717  0.20156496  0.21862020     0.17980
H457        H  0.36981297  0.06333276  0.19196942     0.17980
F458        F  0.35246075  0.10538762  0.13549626    -0.19780
C459        C  0.48764814  0.19585514  0.00668569    -0.21210
C460        C  0.45129866  0.19096047  0.99817794    -0.09250
C461        C  0.42668769  0.16252723  0.96282071     0.29600
C462        C  0.43707173  0.13761053  0.94010813    -0.21210
C463        C  0.47190068  0.14007552  0.45299424    -0.09270
C464        C  0.49780617  0.17055068  0.48484318     0.29610
F465        F  0.53255986  0.17534156  0.49623753    -0.19790
H466        H  0.50664119  0.21684871  0.03497695     0.17980
H467        H  0.41688375  0.11505506  0.91468061     0.17980
F468        F  0.39091554  0.15621219  0.95515561    -0.19780
C469        C  0.42842565  0.24710887  0.59993122     0.03220
C470        C  0.43920852  0.23803137  0.55040676    -0.12930
C471        C  0.43433632  0.20163185  0.54243860     0.00720
C472        C  0.41803760  0.17459319  0.58255956    -0.11450
C473        C  0.41047129  0.18385417  0.63267205     0.03220
C474        C  0.41620546  0.22017651  0.64161432    -0.10870
H475        H  0.45129271  0.25875801  0.51867432     0.08810
H476        H  0.41585630  0.14722454  0.57662071     0.06340
H477        H  0.41231965  0.22768069  0.68166366     0.06190
C478        C  0.24136971  0.80022018  0.90568140     0.03220
C479        C  0.21479955  0.78351255  0.86401782    -0.12930
C480        C  0.17836201  0.75263069  0.87382566     0.00720
C481        C  0.16863824  0.73735571  0.92471056    -0.11450
C482        C  0.19553664  0.74993638  0.96502168     0.03220
C483        C  0.23201778  0.78188488  0.95617775    -0.10870
H484        H  0.22260665  0.79375492  0.82350492     0.08810
H485        H  0.14113433  0.71196881  0.93128108     0.06340
H486        H  0.25262220  0.79198550  0.98798238     0.06190
C487        C  0.72763240  0.18143701  0.59314364     0.03220
C488        C  0.73572748  0.20121648  0.54384198    -0.12930
C489        C  0.77185267  0.23358420  0.53486875     0.00720
C490        C  0.79961992  0.24539901  0.57381572    -0.11450
C491        C  0.79174034  0.22786827  0.62331894     0.03220
C492        C  0.75585475  0.19607066  0.63303913    -0.10870
H493        H  0.71460342  0.19177004  0.51281143     0.08810
H494        H  0.82673085  0.27121957  0.56717799     0.06340
H495        H  0.74969598  0.18352555  0.67243175     0.06190
C496        C  0.53757695  0.73377712  0.90659329     0.03220
C497        C  0.54898463  0.76051091  0.86477641    -0.12930
C498        C  0.55483300  0.79682343  0.87393927     0.00720
C499        C  0.54815162  0.80632723  0.92438908    -0.11450
C500        C  0.53229632  0.77938363  0.96471675     0.03220
C501        C  0.52734282  0.74293052  0.95652537    -0.10870
H502        H  0.55225018  0.75288136  0.82450644     0.08810
H503        H  0.55052170  0.83377153  0.93046140     0.06340
H504        H  0.51564772  0.72224414  0.98834814     0.06190
C505        C  0.79279737  0.54184204  0.59558451     0.03220
C506        C  0.77112406  0.52903914  0.54817699    -0.12930
C507        C  0.74109990  0.53622990  0.53969762     0.00720
C508        C  0.73264354  0.55550218  0.57819390    -0.11450
C509        C  0.75152339  0.56574864  0.62667360     0.03220
C510        C  0.78230728  0.55993852  0.63475565    -0.10870
H511        H  0.77678013  0.51284893  0.51901749     0.08810
H512        H  0.70787944  0.55858409  0.57251635     0.06340
H513        H  0.79727203  0.56859290  0.67225690     0.06190
C514        C  0.17546414  0.44225330  0.90349203     0.03220
C515        C  0.18578982  0.42424986  0.86397151    -0.12930
C516        C  0.21582135  0.41731716  0.87222714     0.00720
C517        C  0.23441866  0.42681608  0.92092725    -0.11450
C518        C  0.22642018  0.44635753  0.95956625     0.03220
C519        C  0.19688739  0.45430176  0.95115983    -0.10870
H520        H  0.17131328  0.41653711  0.82605369     0.08810
H521        H  0.25890128  0.42325788  0.92651351     0.06340
H522        H  0.19147640  0.47055643  0.98051291     0.06190
O523        O  0.93522842  0.36357803  0.74311011    -0.80800
O524        O  0.98875631  0.48992302  0.92651831    -0.65490
O525        O  0.94987438  0.40394648  0.83609458    -1.12090
C526        C  0.84522269  0.42618834  0.83357880     1.06090
O527        O  0.93601396  0.45849596  0.97580221    -0.78690
O528        O  0.86733367  0.39846930  0.94280951    -0.66270
Ni529      Ni  0.97971885  0.40493323  0.77608733     1.34870
C530        C  0.86097655  0.36839198  0.91891096     0.84830
O531        O  0.01712661  0.44715083  0.88980449    -0.79230
O532        O  0.02860775  0.44304898  0.80471296    -0.89510
C533        C  0.97156134  0.48255649  0.97165325     0.84400
O534        O  0.97195812  0.44299238  0.74413240    -0.67710
O535        O  0.85808903  0.44481461  0.87686603    -0.87000
C536        C  0.98271178  0.47546255  0.76462638     0.85230
C537        C  0.03892015  0.44732475  0.85321772     1.06800
H538        H  0.93112772  0.47013062  0.84413213     0.38600
O539        O  0.92583733  0.44853389  0.86586873    -1.09660
O540        O  0.87729284  0.36889478  0.87533233    -0.66310
Ni541      Ni  0.90468927  0.40618170  0.82119177     1.26350
O542        O  0.99188134  0.48252031  0.81454746    -0.66540
O543        O  0.86088880  0.41029225  0.80842409    -0.78830
C544        C  0.89926711  0.34885815  0.74866442     0.84610
O545        O  0.88417636  0.36388911  0.77610807    -0.66010
Ni546      Ni  0.89757019  0.45116981  0.92459817     1.27450
Ni547      Ni  0.97148774  0.44854576  0.87794752     1.26060
H548        H  0.94409706  0.38245367  0.85834684     0.39160
O549        O  0.02864541  0.52502963  0.51527918    -0.80800
O550        O  0.08449180  0.61109921  0.72388624    -0.65490
O551        O  0.04089438  0.53195411  0.62466677    -1.12090
C552        C  0.92993783  0.53698272  0.64393296     1.06090
O553        O  0.03612573  0.61813754  0.75147727    -0.78690
O554        O  0.99695731  0.53863939  0.75008653    -0.66270
Ni555      Ni  0.06862318  0.53222151  0.56330851     1.34870
C556        C  0.98563503  0.50620071  0.72903566     0.84830
O557        O  0.10470976  0.56413239  0.68469387    -0.79230
O558        O  0.10989034  0.53869984  0.60734831    -0.89510
C559        C  0.07154853  0.62905168  0.74904092     0.84400
O560        O  0.09655030  0.58545296  0.54796090    -0.67710
O561        O  0.94076226  0.54073083  0.69209595    -0.87000
C562        C  0.10581300  0.61420753  0.57720605     0.85230
C563        C  0.12178280  0.55252695  0.65367235     1.06800
H564        H  0.02684874  0.59988933  0.63784851     0.38600
O565        O  0.01959447  0.57764224  0.65938387    -1.09660
O566        O  0.97611278  0.49941490  0.67909331    -0.66310
Ni567      Ni  0.99601006  0.53388419  0.61586477     1.26350
O568        O  0.09306935  0.61169111  0.62419314    -0.66540
O569        O  0.95117358  0.53713117  0.60661027    -0.78830
C570        C  0.99327407  0.50063128  0.52023887     0.84610
O571        O  0.97662613  0.49309297  0.56581820    -0.66010
Ni572      Ni  0.99049684  0.57776659  0.71953062     1.27450
Ni573      Ni  0.06288039  0.57171498  0.67373936     1.26060
H574        H  0.03495563  0.50898251  0.64339261     0.39160
O575        O  0.40970824  0.04459343  0.74827066    -0.80800
O576        O  0.47745293  0.98630743  0.93265858    -0.65490
O577        O  0.43126640  0.02621135  0.84282817    -1.12090
C578        C  0.55819672  0.13229256  0.84677363     1.06090
O579        O  0.49652163  0.03758505  0.98313224    -0.78690
O580        O  0.50664075  0.10714554  0.95298608    -0.66270
Ni581      Ni  0.40417326  0.99911861  0.78095311     1.34870
C582        C  0.48184951  0.11240708  0.93034692     0.84830
O583        O  0.40650728  0.95768081  0.89398373    -0.79230
O584        O  0.39102469  0.94976947  0.80863813    -0.89510
C585        C  0.48657285  0.00273467  0.97808573     0.84400
O586        O  0.45057900  0.00584325  0.75009537    -0.67710
O587        O  0.56399894  0.11777302  0.88808870    -0.87000
C588        C  0.47138365  0.99399047  0.77042051     0.85230
C589        C  0.38434000  0.93821469  0.85673529     1.06800
H590        H  0.51675313  0.04613232  0.85158184     0.38600
O591        O  0.49973872  0.05031043  0.87398302    -1.09660
O592        O  0.46569410  0.09565826  0.88768958    -0.66310
Ni593      Ni  0.47874592  0.07241061  0.83142091     1.26350
O594        O  0.46909071  0.98514347  0.82051925    -0.66540
O595        O  0.52659528  0.11745787  0.82207557    -0.78830
C596        C  0.42942801  0.08004395  0.75774571     0.84610
O597        O  0.45737614  0.09410600  0.78881281    -0.66010
Ni598      Ni  0.52934396  0.07717514  0.93394825     1.27450
Ni599      Ni  0.45383207  0.00394886  0.88410575     1.26060
H600        H  0.41433999  0.03049547  0.86529759     0.39160
O601        O  0.47400460  0.94622704  0.52106664    -0.80800
O602        O  0.50818466  0.88803133  0.71914900    -0.65490
O603        O  0.46899703  0.93309300  0.63024715    -1.12090
C604        C  0.58584554  0.04375863  0.64753202     1.06090
O605        O  0.55811446  0.93710037  0.75689727    -0.78690
O606        O  0.51906536  0.97752425  0.75470776    -0.66270
Ni607      Ni  0.44024188  0.90664724  0.56954128     1.34870
C608        C  0.49841766  0.98948826  0.73417548     0.84830
O609        O  0.43968417  0.86625965  0.68379175    -0.79230
O610        O  0.40467078  0.86609541  0.61451946    -0.89510
C611        C  0.53672756  0.90161443  0.74915991     0.84400
O612        O  0.46287347  0.87644930  0.55156314    -0.67710
O613        O  0.57936085  0.03250353  0.69574845    -0.87000
C614        C  0.48606132  0.86973022  0.57606254     0.85230
C615        C  0.40895841  0.85148879  0.65692139     1.06800
H616        H  0.55322704  0.95036736  0.64017559     0.38600
O617        O  0.53689475  0.95559720  0.66249554    -1.09660
O618        O  0.50072416  0.99818425  0.68399213    -0.66310
Ni619      Ni  0.51554293  0.97877335  0.62056485     1.26350
O620        O  0.50077162  0.88525032  0.62000290    -0.66540
O621        O  0.56338725  0.02430347  0.61062515    -0.78830
C622        C  0.48398321  0.98106568  0.52614908     0.84610
O623        O  0.49300637  0.99736854  0.57164753    -0.66010
Ni624      Ni  0.56485080  0.98286325  0.72381461     1.27450
Ni625      Ni  0.48844896  0.91034959  0.67450081     1.26060
H626        H  0.45199773  0.93790086  0.65168871     0.39160
C627        C  0.62321182  0.33695167  0.79224103     0.03220
C628        C  0.66213658  0.36420124  0.79076541    -0.12930
C629        C  0.68934819  0.35299716  0.79248736     0.00720
C630        C  0.67778951  0.31452395  0.79676724    -0.11450
C631        C  0.63911579  0.28738456  0.79830744     0.03220
C632        C  0.61177420  0.29857913  0.79612932    -0.10870
H633        H  0.67128626  0.39411540  0.78944181     0.08810
H634        H  0.69884017  0.30574391  0.79964534     0.06340
H635        H  0.58168993  0.27752013  0.79850812     0.06190
C636        C  0.34486752  0.64599144  0.69112672     0.03220
C637        C  0.30621487  0.61821841  0.68921652    -0.12930
C638        C  0.27854809  0.62878235  0.68827577     0.00720
C639        C  0.28937072  0.66717940  0.68810452    -0.11450
C640        C  0.32788549  0.69488141  0.68981446     0.03220
C641        C  0.35571227  0.68425749  0.69084633    -0.10870
H642        H  0.29767037  0.58843561  0.68847513     0.08810
H643        H  0.26788527  0.67545798  0.68667686     0.06340
H644        H  0.38570636  0.70569412  0.69130594     0.06190
O645        O  0.45087552  0.50311589  0.52027324    -0.80800
O646        O  0.35218610  0.46247292  0.71291548    -0.65490
O647        O  0.44120126  0.50560998  0.62956858    -1.12090
C648        C  0.43677990  0.39076711  0.64679923     1.06090
O649        O  0.35486270  0.41605061  0.75526702    -0.78690
O650        O  0.43510852  0.45701862  0.75255684    -0.66270
Ni651      Ni  0.44601017  0.53631412  0.57038266     1.34870
C652        C  0.46820840  0.47773477  0.73193034     0.84830
O653        O  0.39971526  0.53227256  0.67992779    -0.79230
O654        O  0.44178002  0.57091117  0.61770816    -0.89510
C655        C  0.33828035  0.43471502  0.74464491     0.84400
O656        O  0.39341159  0.51636955  0.55214854    -0.67710
O657        O  0.43211555  0.39779305  0.69490195    -0.87000
C658        C  0.36249890  0.49049983  0.57269746     0.85230
C659        C  0.41925046  0.56456228  0.65725550     1.06800
H660        H  0.37462520  0.42056490  0.63836589     0.38600
O661        O  0.39579536  0.43746373  0.66053773    -1.09660
O662        O  0.47534680  0.47493250  0.68205777    -0.66310
Ni663      Ni  0.44131539  0.45994139  0.61894647     1.26350
O664        O  0.36198512  0.47211350  0.61350914    -0.66540
O665        O  0.43988486  0.41279689  0.60920434    -0.78830
C666        C  0.47495336  0.49195658  0.52393417     0.84610
O667        O  0.48285309  0.48324770  0.56912956    -0.66010
Ni668      Ni  0.39541852  0.41068828  0.72270882     1.27450
Ni669      Ni  0.39680855  0.48450516  0.67121488     1.26060
H670        H  0.46204604  0.52203046  0.65250199     0.39160
O671        O  0.61251200  0.56849713  0.74410264    -0.80800
O672        O  0.48457726  0.49702681  0.92970250    -0.65490
O673        O  0.57189684  0.54540061  0.83922437    -1.12090
C674        C  0.55012707  0.41894474  0.83674014     1.06090
O675        O  0.51613409  0.47623987  0.97770940    -0.78690
O676        O  0.57473340  0.46512064  0.94442392    -0.66270
Ni677      Ni  0.57168972  0.57276462  0.77800023     1.34870
C678        C  0.60564799  0.49152809  0.92465279     0.84830
O679        O  0.52712007  0.56837776  0.89253946    -0.79230
O680        O  0.53459621  0.58462905  0.80732995    -0.89510
C681        C  0.49229962  0.48775182  0.97454729     0.84400
O682        O  0.53238019  0.52658418  0.74709687    -0.67710
O683        O  0.52755094  0.41156428  0.87656142    -0.87000
C684        C  0.49938223  0.50531137  0.76765479     0.85230
C685        C  0.53002117  0.59093322  0.85584020     1.06800
H686        H  0.50638033  0.46042809  0.84446240     0.38600
O687        O  0.52702598  0.47653465  0.86788022    -1.09660
O688        O  0.60624800  0.51043087  0.88437110    -0.66310
Ni689      Ni  0.57163995  0.49894683  0.82654487     1.26350
O690        O  0.49226533  0.50751713  0.81768223    -0.66540
O691        O  0.56944126  0.45172280  0.81541095    -0.78830
C692        C  0.62973249  0.55034295  0.75390500     0.84610
O693        O  0.61644226  0.52235875  0.78526981    -0.66010
Ni694      Ni  0.52219756  0.44469296  0.92566213     1.27450
Ni695      Ni  0.52628448  0.52168439  0.88060613     1.26060
H696        H  0.59296120  0.56215544  0.86166197     0.39160
C697        C  0.39915994  0.64417081  0.64860352    -0.21210
C698        C  0.37345026  0.63431048  0.69137206    -0.09250
C699        C  0.37098681  0.60836473  0.72970323     0.29600
C700        C  0.39052019  0.58898601  0.72178774    -0.21210
C701        C  0.41205515  0.59474221  0.67496829    -0.09270
C702        C  0.41854616  0.62449753  0.64024186     0.29610
F703        F  0.43992585  0.63171305  0.59518747    -0.19790
H704        H  0.40148828  0.66452267  0.61907565     0.17980
H705        H  0.38581820  0.56693109  0.74985256     0.17980
F706        F  0.34704949  0.59940384  0.77227355    -0.19780
C707        C  0.57010692  0.33899021  0.83848534    -0.21210
C708        C  0.59510880  0.34936732  0.79469745    -0.09250
C709        C  0.59728093  0.37625148  0.75822157     0.29600
C710        C  0.57830190  0.39588096  0.76901634    -0.21210
C711        C  0.55742862  0.38929719  0.81671643    -0.09270
C712        C  0.55120885  0.35880201  0.84961223     0.29610
F713        F  0.53051170  0.35082354  0.89546001    -0.19790
H714        H  0.56795030  0.31799196  0.86671675     0.17980
H715        H  0.58272854  0.41852343  0.74227634     0.17980
F716        F  0.62023474  0.38564991  0.71447438    -0.19780
C717        C  0.38286629  0.79815301  0.72091394    -0.21210
C718        C  0.37852272  0.81347409  0.67323519    -0.09250
C719        C  0.35045417  0.78937244  0.63674588     0.29600
C720        C  0.33114843  0.75026511  0.64476144    -0.21210
C721        C  0.33969972  0.73510448  0.68887649    -0.09270
C722        C  0.36394594  0.75918892  0.72841320     0.29610
F723        F  0.37157520  0.74486672  0.77223030    -0.19790
H724        H  0.40358370  0.81601866  0.75028594     0.17980
H725        H  0.31206030  0.73175107  0.11430670     0.17980
F726        F  0.34453271  0.80292570  0.59072772    -0.19780
C727        C  0.58386450  0.18271833  0.77841209    -0.21210
C728        C  0.58800355  0.16994112  0.82845902    -0.09250
C729        C  0.61531634  0.19596395  0.86412091     0.29600
C730        C  0.63465255  0.23456650  0.85203783    -0.21210
C731        C  0.62672760  0.24728534  0.80476008    -0.09270
C732        C  0.60272010  0.22117941  0.76688114     0.29610
F733        F  0.59544313  0.23313315  0.72042280    -0.19790
H734        H  0.56353956  0.16323284  0.74986169     0.17980
H735        H  0.65337035  0.25470602  0.38147009     0.17980
F736        F  0.62040444  0.18482715  0.91274854    -0.19780
C737        C  0.17439090  0.57897856  0.71855863    -0.21210
C738        C  0.15957545  0.55980015  0.67023659    -0.09250
C739        C  0.18425955  0.55637958  0.63359003     0.29600
C740        C  0.22349835  0.57658143  0.64193620    -0.21210
C741        C  0.23815406  0.60005277  0.68658509    -0.09270
C742        C  0.21348928  0.59948156  0.72632782     0.29610
F743        F  0.22740259  0.62122934  0.77061652    -0.19790
H744        H  0.15614001  0.58137092  0.74818978     0.17980
H745        H  0.24252901  0.57645881  0.11146386     0.17980
F746        F  0.17114717  0.53685102  0.58734949    -0.19780
C747        C  0.79374598  0.39759734  0.76695423    -0.21210
C748        C  0.80816429  0.41906253  0.81374498    -0.09250
C749        C  0.78369183  0.42585549  0.84621260     0.29600
C750        C  0.74468518  0.40681650  0.83600191    -0.21210
C751        C  0.73002496  0.38112979  0.79360910    -0.09270
C752        C  0.75485422  0.37833149  0.75730044     0.29610
F753        F  0.74110562  0.35439191  0.71510048    -0.19790
H754        H  0.81196724  0.39267000  0.74034340     0.17980
H755        H  0.72563860  0.40947755  0.86391450     0.17980
F756        F  0.79652979  0.44756149  0.89070829    -0.19780
C757        C  0.13831024  0.45998958  0.84191764    -0.21210
C758        C  0.14320625  0.44912459  0.89313470    -0.09250
C759        C  0.11526997  0.44176487  0.93235965     0.29600
C760        C  0.08253223  0.44333622  0.91968516    -0.21210
C761        C  0.07652244  0.45178184  0.86756019    -0.09270
C762        C  0.10536919  0.46105898  0.82905314     0.29610
F763        F  0.10153874  0.47046607  0.77861377    -0.19790
H764        H  0.15970696  0.46682800  0.81114793     0.17980
H765        H  0.06087358  0.43595491  0.95023219     0.17980
F766        F  0.11820075  0.43051250  0.98201357    -0.19780
C767        C  0.29178334  0.44799546  0.06317706    -0.21210
C768        C  0.32534118  0.48176505  0.54943675    -0.09250
C769        C  0.32247374  0.50756147  0.51536234     0.29600
C770        C  0.28754413  0.49821909  0.99237951    -0.21210
C771        C  0.25484838  0.46294429  0.00241778    -0.09270
C772        C  0.25697578  0.43848807  0.03962651     0.29610
F773        F  0.22622065  0.40367129  0.04882406    -0.19790
H774        H  0.29274625  0.42788414  0.09015638     0.17980
H775        H  0.28675942  0.51693446  0.46268146     0.17980
F776        F  0.35362068  0.54134537  0.50266741    -0.19780
C777        C  0.24942833  0.43689315  0.78599673    -0.21210
C778        C  0.23564583  0.41052914  0.82769481    -0.09250
C779        C  0.25144350  0.38713365  0.83515821     0.29600
C780        C  0.28413393  0.39412281  0.80675636    -0.21210
C781        C  0.30101923  0.42401105  0.76983445    -0.09270
C782        C  0.28178598  0.44372443  0.75725157     0.29610
F783        F  0.29538976  0.47141375  0.71963201    -0.19790
H784        H  0.23774346  0.45521268  0.77940535     0.17980
H785        H  0.29727151  0.37742145  0.81573313     0.17980
F786        F  0.23770371  0.36033414  0.87401804    -0.19780
C787        C  0.83113292  0.52572343  0.65743595    -0.21210
C788        C  0.82549860  0.53564804  0.60596878    -0.09250
C789        C  0.85293421  0.54239050  0.56623607     0.29600
C790        C  0.88574755  0.54087086  0.57846565    -0.21210
C791        C  0.89240526  0.53311067  0.63064315    -0.09270
C792        C  0.86419274  0.52472438  0.66985215     0.29610
F793        F  0.86869259  0.51613395  0.72045539    -0.19790
H794        H  0.81016061  0.51941048  0.68866300     0.17980
H795        H  0.90690470  0.54759727  0.54736512     0.17980
F796        F  0.84939685  0.55285913  0.51634683    -0.19780
C797        C  0.71613879  0.59640627  0.66173093    -0.21210
C798        C  0.73191793  0.57318370  0.67091136    -0.09250
C799        C  0.71823597  0.54783690  0.71400831     0.29600
C800        C  0.68617447  0.54221494  0.74236624    -0.21210
C801        C  0.66698309  0.56155813  0.72830108    -0.09270
C802        C  0.68365386  0.59046565  0.68977282     0.29610
F803        F  0.66729643  0.61115812  0.67648190    -0.19790
H804        H  0.72652013  0.61634138  0.62885872     0.18280
H805        H  0.67505435  0.52078526  0.77330792     0.17980
F806        F  0.73256448  0.52486969  0.72438134    -0.19780
C807        C  0.67636108  0.53411710  0.43472857    -0.21210
C808        C  0.64271852  0.50031285  0.94833034    -0.09250
C809        C  0.64541913  0.47464844  0.98290964     0.29600
C810        C  0.68023601  0.48418263  0.50649147    -0.21210
C811        C  0.71294616  0.51945377  0.49655179    -0.09270
C812        C  0.71102674  0.54375058  0.45885238     0.29610
F813        F  0.74181875  0.57854503  0.44967142    -0.19790
H814        H  0.67554693  0.55413107  0.40739537     0.17980
H815        H  0.68080965  0.46553931  0.53657793     0.17980
F816        F  0.61423301  0.44089467  0.99560612    -0.19780
C817        C  0.50671948  0.66233936  0.91869497    -0.21210
C818        C  0.53548936  0.69656603  0.89595487    -0.09250
C819        C  0.56223765  0.69494238  0.86117103     0.29600
C820        C  0.55884757  0.66030211  0.84722368    -0.21210
C821        C  0.53009853  0.62631869  0.86936075    -0.09270
C822        C  0.50439513  0.62757239  0.90621965     0.29610
F823        F  0.47656985  0.59520034  0.92907506    -0.19790
H824        H  0.48567681  0.66231238  0.94552426     0.17980
H825        H  0.57982596  0.66018826  0.82030473     0.17980
F826        F  0.59270418  0.72698213  0.84171358    -0.19780
C827        C  0.47935102  0.78546595  0.00102685    -0.21210
C828        C  0.51567609  0.79020796  0.00925582    -0.09250
C829        C  0.54052496  0.81876386  0.04432850     0.29600
C830        C  0.53041225  0.84394905  0.06690277    -0.21210
C831        C  0.49567104  0.84167302  0.55405445    -0.09270
C832        C  0.46950572  0.81108242  0.52263711     0.29610
F833        F  0.43481364  0.80650826  0.51141067    -0.19790
H834        H  0.46015537  0.76437734  0.47301551     0.17980
H835        H  0.55075421  0.86661157  0.09205272     0.17980
F836        F  0.57627319  0.82495287  0.05174966    -0.19780
C837        C  0.57784295  0.88719488  0.80671007    -0.21210
C838        C  0.54529619  0.87433547  0.77508367    -0.09250
C839        C  0.52131125  0.83487209  0.76747784     0.29600
C840        C  0.52802799  0.80928709  0.79474707    -0.21210
C841        C  0.55832909  0.82227016  0.83028686    -0.09270
C842        C  0.58440280  0.86136934  0.83406607     0.29610
F843        F  0.61428733  0.87453334  0.86788792    -0.19790
H844        H  0.59741438  0.91722029  0.81201631     0.17980
H845        H  0.50733962  0.77930441  0.79194117     0.17980
F846        F  0.48999064  0.82059863  0.73617132    -0.19780
C847        C  0.69018621  0.11785314  0.63742218    -0.21210
C848        C  0.69036751  0.14602098  0.60493764    -0.09250
C849        C  0.65496499  0.14009409  0.58661753     0.29600
C850        C  0.62081509  0.10682909  0.60034387    -0.21210
C851        C  0.62112726  0.07966640  0.63416608    -0.09270
C852        C  0.65618091  0.08562770  0.65268164     0.29610
F853        F  0.65771659  0.05940762  0.68397212    -0.19790
H854        H  0.71662401  0.12053866  0.65109487     0.17980
H855        H  0.59402163  0.10262396  0.58544753     0.17980
F856        F  0.65297125  0.16675408  0.55709657    -0.19780
C857        C  0.83396513  0.29365979  0.73746576    -0.21210
C858        C  0.87288944  0.31230508  0.72305442    -0.09250
C859        C  0.88513353  0.29593656  0.68400963     0.29600
C860        C  0.85828696  0.26411602  0.65605002    -0.21210
C861        C  0.81903964  0.24858595  0.66614892    -0.09270
C862        C  0.80723281  0.26220567  0.70926597     0.29610
F863        F  0.76965046  0.24818431  0.72011799    -0.19790
H864        H  0.82369034  0.30467177  0.76877142     0.17980
H865        H  0.86785715  0.25380362  0.62296042     0.17980
F866        F  0.92248546  0.31207900  0.67004966    -0.19780
C867        C  0.77767026  0.29204560  0.49902669    -0.21210
C868        C  0.78177531  0.26033861  0.49004135    -0.09250
C869        C  0.80910426  0.26330356  0.45253926     0.29600
C870        C  0.83398773  0.29816738  0.92824983    -0.21210
C871        C  0.83257377  0.33091378  0.94170886    -0.09270
C872        C  0.80293146  0.32707560  0.47560140     0.29610
F873        F  0.79912247  0.35740607  0.48774608    -0.19790
H874        H  0.75751530  0.29069889  0.52881543     0.17980
H875        H  0.85586667  0.29998786  0.90132771     0.17980
F876        F  0.81456450  0.23353948  0.44415933    -0.19780
C877        C  0.31495753  0.89537527  0.84589750    -0.21210
C878        C  0.34897550  0.90207469  0.86918240    -0.09250
C879        C  0.34769086  0.87569567  0.90625495     0.29600
C880        C  0.31290533  0.84257400  0.91819741    -0.21210
C881        C  0.27862390  0.83577538  0.89464289    -0.09270
C882        C  0.28022107  0.86335912  0.85921663     0.29610
F883        F  0.24801751  0.86036276  0.83871881    -0.19790
H884        H  0.31504200  0.91592984  0.81866506     0.17980
H885        H  0.31296557  0.82213419  0.94541258     0.17980
F886        F  0.38008149  0.88152840  0.92998637    -0.19780
C887        C  0.16481288  0.65698722  0.52526783    -0.21210
C888        C  0.13393200  0.65234572  0.55667548    -0.09250
C889        C  0.13106931  0.68446610  0.06904365     0.29600
C890        C  0.15622447  0.71955136  0.04542607    -0.21210
C891        C  0.18508394  0.72335511  0.01018164    -0.09270
C892        C  0.19047725  0.69222529  0.00284645     0.29610
F893        F  0.21747061  0.69465069  0.96810313    -0.19790
H894        H  0.16833731  0.63293544  0.51658163     0.17980
H895        H  0.15075382  0.74274327  0.05029115     0.17980
F896        F  0.10201294  0.68126553  0.10006544    -0.19780
C897        C  0.08732691  0.68533916  0.80632987    -0.21210
C898        C  0.09958411  0.66472293  0.77532904    -0.09250
C899        C  0.13918694  0.67910770  0.76869232     0.29600
C900        C  0.16535925  0.71139550  0.79606400    -0.21210
C901        C  0.15280331  0.72979920  0.83068706    -0.09270
C902        C  0.11371248  0.71762650  0.83389012     0.29610
F903        F  0.10097564  0.73527547  0.86703936    -0.19790
H904        H  0.05725920  0.67565999  0.81105837     0.17980
H905        H  0.19532304  0.72003880  0.79379643     0.17980
F906        F  0.15291824  0.66122210  0.73777642    -0.19780
C907        C  0.46005856  0.31851458  0.58740496    -0.21210
C908        C  0.43087832  0.28452054  0.61014026    -0.09250
C909        C  0.40402072  0.28659946  0.64414818     0.29600
C910        C  0.40756794  0.32145906  0.65713346    -0.21210
C911        C  0.43661512  0.35516975  0.63475674    -0.09270
C912        C  0.46255049  0.35346348  0.59886949     0.29610
F913        F  0.49071563  0.38557877  0.57591495    -0.19790
H914        H  0.48126106  0.31822423  0.56126123     0.17980
H915        H  0.38645710  0.32195022  0.68336212     0.17980
F916        F  0.37325045  0.25481692  0.66359247    -0.19780
C917        C  0.43507136  0.17141795  0.71433763    -0.21210
C918        C  0.40614140  0.15814093  0.67650932    -0.09250
C919        C  0.38122122  0.11886778  0.67121326     0.29600
C920        C  0.38815909  0.09337238  0.69878610    -0.21210
C921        C  0.41977453  0.10672840  0.73238671    -0.09270
C922        C  0.44203734  0.14615576  0.74203560     0.29610
F923        F  0.47212404  0.16083282  0.77569238    -0.19790
H924        H  0.45478108  0.20153435  0.71864580     0.17980
H925        H  0.36978014  0.06329989  0.69198529     0.17980
F926        F  0.35240997  0.10534705  0.63552638    -0.19780
C927        C  0.48760918  0.19582943  0.50673256    -0.21210
C928        C  0.45125871  0.19092977  0.49821539    -0.09250
C929        C  0.42665554  0.16249874  0.46284990     0.29600
C930        C  0.43704929  0.13759044  0.44013405    -0.21210
C931        C  0.47192120  0.14008972  0.95296309    -0.09270
C932        C  0.49783544  0.17056822  0.98479975     0.29610
F933        F  0.53258846  0.17535451  0.99618605    -0.19790
H934        H  0.50659574  0.21682087  0.53503117     0.17980
H935        H  0.41686741  0.11503685  0.41469856     0.17980
F936        F  0.39088220  0.15617831  0.45517685    -0.19780
loop_ 
_geom_bond_atom_site_label_1 
_geom_bond_atom_site_label_2 
_geom_bond_distance 
_geom_bond_site_symmetry_2 
_ccdc_geom_bond_type 
C1            C2   1.422       .  A
C1            C6   1.414       .  A
C1          C440   1.502       .  S
C2            C3   1.412       .  A
C2            H7   1.082       .  S
C3            C4   1.390       .  A
C3          C460   1.476   1_554  S
C4            C5   1.387       .  A
C4            H8   1.086       .  S
C5            C6   1.399       .  A
C5          C450   1.471       .  S
C6            H9   1.083       .  S
C10          C11   1.414       .  A
C10          C15   1.422       .  A
C10         C413   1.502       .  S
C11          C12   1.398       .  A
C11          H16   1.083       .  S
C12          C13   1.387       .  A
C12         C433   1.469       .  S
C13          C14   1.391       .  A
C13          H17   1.087       .  S
C14          C15   1.412       .  A
C14         C423   1.476       .  S
C15          H18   1.082       .  S
C19          C20   1.423       .  A
C19          C24   1.415       .  A
C19         C380   1.503       .  S
C20          C21   1.411       .  A
C20          H25   1.081       .  S
C21          C22   1.390       .  A
C21         C400   1.476   1_554  S
C22          C23   1.388       .  A
C22          H26   1.086       .  S
C23          C24   1.399       .  A
C23         C393   1.474       .  S
C24          H27   1.083       .  S
C28          C29   1.414       .  A
C28          C33   1.423       .  A
C28         C350   1.503       .  S
C29          C30   1.398       .  A
C29          H34   1.083       .  S
C30          C31   1.387       .  A
C30         C373   1.469       .  S
C31          C32   1.390       .  A
C31          H35   1.087       .  S
C32          C33   1.414       .  A
C32         C360   1.477       .  S
C33          H36   1.082       .  S
C37          C38   1.420       .  A
C37          C42   1.414       .  A
C37         C320   1.498       .  S
C38          C39   1.410       .  A
C38          H43   1.083       .  S
C39          C40   1.390       .  A
C39         C343   1.476   1_554  S
C40          C41   1.391       .  A
C40          H44   1.086       .  S
C41          C42   1.402       .  A
C41         C330   1.477       .  S
C42          H45   1.083       .  S
C46          C47   1.413       .  A
C46          C51   1.420       .  A
C46         C290   1.498       .  S
C47          C48   1.402       .  A
C47          H52   1.083       .  S
C48          C49   1.391       .  A
C48         C310   1.476       .  S
C49          C50   1.390       .  A
C49          H53   1.086       .  S
C50          C51   1.410       .  A
C50         C303   1.477       .  S
C51          H54   1.083       .  S
O55         Ni61   1.936       .  S
O55          C76   1.275       .  A
O56         Ni79   1.908       .  S
O56          C65   1.279       .  A
O57         Ni61   1.911       .  S
O57         Ni79   1.894       .  S
O57         Ni73   1.924       .  S
O57          H80   0.965       .  S
C58         C280   1.474       .  S
C58          O75   1.277       .  A
C58          O67   1.279       .  A
O59         Ni78   1.936       .  S
O59          C65   1.276       .  A
O60         Ni78   1.920       .  S
O60          C62   1.271       .  A
Ni61         O64   1.946   1_655  S
Ni61         O66   1.916       .  S
C62         C403   1.489       .  S
C62          O72   1.268       .  A
O63         Ni79   1.910   1_455  S
O63          C69   1.266       .  A
O64          C69   1.274       .  A
C65         C570   1.473       .  S
O66          C68   1.277       .  A
O67         Ni78   1.922       .  S
C68          C88   1.499       .  S
C68          O74   1.300       .  A
C69         C293   1.492       .  S
H70          O71   0.966       .  S
O71         Ni79   1.882       .  S
O71         Ni73   1.870       .  S
O71         Ni78   1.895       .  S
O72         Ni73   1.919       .  S
Ni73         O77   1.874       .  S
Ni73         O75   1.900       .  S
O74         Ni79   1.994       .  S
C76         C390   1.478       .  S
C76          O77   1.263       .  A
O81         Ni87   1.932       .  S
O81         C102   1.275   1_455  A
O82        Ni105   1.878       .  S
O82          C91   1.262       .  A
O83         Ni87   1.895       .  S
O83        Ni105   1.870       .  S
O83         Ni99   1.880   1_455  S
O83         H106   0.966       .  S
C84         C323   1.493       .  S
C84         O101   1.265       .  A
C84          O93   1.273       .  A
O85        Ni104   1.933   1_455  S
O85          C91   1.275       .  A
O86        Ni104   1.911       .  S
O86          C88   1.278       .  A
Ni87         O90   1.921       .  S
Ni87         O92   1.918       .  S
C88          O98   1.303       .  A
O89        Ni105   1.898       .  S
O89          C95   1.277       .  A
O90          C95   1.279       .  A
C91         C430   1.480       .  S
O92          C94   1.270       .  A
O93        Ni104   1.945       .  S
C94         C420   1.483       .  S
C94         O100   1.266       .  A
C95         C270   1.473       .  S
H96          O97   0.968       .  S
O97        Ni105   1.930       .  S
O97         Ni99   1.894   1_455  S
O97        Ni104   1.909   1_455  S
O98         Ni99   2.000       .  S
Ni99        O103   1.912       .  S
Ni99        O101   1.908       .  S
O100       Ni105   1.919       .  S
C102        C533   1.473   1_554  S
C102        O103   1.280       .  A
O107       Ni113   1.940   1_545  S
O107        C128   1.276       .  A
O108       Ni131   1.912   1_565  S
O108        C117   1.280   1_565  A
O109       Ni113   1.908   1_545  S
O109       Ni131   1.900       .  S
O109       Ni125   1.920       .  S
O109        H132   0.966       .  S
C110        C260   1.470       .  S
C110        O127   1.276       .  A
C110        O119   1.278       .  A
O111       Ni130   1.930       .  S
O111        C117   1.276       .  A
O112       Ni130   1.925       .  S
O112        C114   1.271       .  A
Ni113       O116   1.937       .  S
Ni113       O118   1.918   1_565  S
C114        C463   1.488       .  S
C114        O124   1.265       .  A
O115       Ni131   1.913   1_565  S
O115        C121   1.268       .  A
O116        C121   1.274       .  A
C117        C622   1.471   1_545  S
O118        C120   1.278   1_545  A
O119       Ni130   1.920       .  S
C120        C140   1.500       .  S
C120        O126   1.299       .  A
C121        C410   1.482       .  S
H122        O123   0.966       .  S
O123       Ni131   1.888       .  S
O123       Ni125   1.868       .  S
O123       Ni130   1.900       .  S
O124       Ni125   1.913       .  S
Ni125       O129   1.867       .  S
Ni125       O127   1.899       .  S
O126       Ni131   1.993   1_565  S
C128        C453   1.480       .  S
C128        O129   1.259       .  A
O133       Ni139   1.929       .  S
O133        C154   1.275       .  A
O134       Ni157   1.870       .  S
O134        C143   1.259       .  A
O135       Ni139   1.899       .  S
O135       Ni157   1.868       .  S
O135       Ni151   1.885       .  S
O135        H158   0.966       .  S
C136        C383   1.481       .  S
C136        O153   1.266       .  A
C136        O145   1.273       .  A
O137       Ni156   1.938       .  S
O137        C143   1.275       .  A
O138       Ni156   1.916       .  S
O138        C140   1.278       .  A
Ni139       O142   1.917       .  S
Ni139       O144   1.924       .  S
C140        O150   1.300       .  A
O141       Ni157   1.903       .  S
O141        C147   1.277       .  A
O142        C147   1.278       .  A
C143        C370   1.480       .  S
O144        C146   1.271       .  A
O145       Ni156   1.938   1_545  S
C146        C363   1.488       .  S
C146        O152   1.265       .  A
C147        C250   1.472       .  S
H148        O149   0.966       .  S
O149       Ni157   1.925       .  S
O149       Ni151   1.901       .  S
O149       Ni156   1.909       .  S
O150       Ni151   1.994       .  S
Ni151       O155   1.912       .  S
Ni151       O153   1.910   1_565  S
O152       Ni157   1.915       .  S
C154        C585   1.471   1_564  S
C154        O155   1.280       .  A
C159        C160   1.402       .  A
C159        C164   1.397       .  A
C159        C240   1.465       .  S
C160        C161   1.395       .  A
C160        H165   1.084       .  S
C161        C162   1.400       .  A
C161        C283   1.462       .  S
C162        C163   1.393       .  A
C162        H166   1.085       .  S
C163        C164   1.400       .  A
C163        C263   1.461       .  S
C164        H167   1.084       .  S
C168        C169   1.400       .  A
C168        C173   1.395       .  A
C168        C230   1.461       .  S
C169        C170   1.393       .  A
C169        H174   1.085       .  S
C170        C171   1.400       .  A
C170        C273   1.460       .  S
C171        C172   1.395       .  A
C171        H175   1.085       .  S
C172        C173   1.401       .  A
C172        C253   1.462       .  S
C173        H176   1.084       .  S
O177       Ni183   1.927       .  S
O177        C198   1.275       .  A
O178       Ni201   1.875       .  S
O178        C187   1.262       .  A
O179       Ni183   1.892       .  S
O179       Ni201   1.868       .  S
O179       Ni195   1.887       .  S
O179        H202   0.966       .  S
C180        C443   1.481       .  S
C180        O197   1.268       .  A
C180        O189   1.274       .  A
O181       Ni200   1.940       .  S
O181        C187   1.277       .  A
O182       Ni200   1.919       .  S
O182        C184   1.278       .  A
Ni183       O186   1.915       .  S
Ni183       O188   1.924       .  S
C184        C216   1.501       .  S
C184        O194   1.299       .  A
O185       Ni201   1.907       .  S
O185        C191   1.279       .  A
O186        C191   1.278       .  A
C187        C313   1.482       .  S
O188        C190   1.270       .  A
O189       Ni200   1.938       .  S
C190        C300   1.490       .  S
C190        O196   1.267       .  A
C191        C233   1.470       .  S
H192        O193   0.966       .  S
O193       Ni201   1.920       .  S
O193       Ni195   1.899       .  S
O193       Ni200   1.905       .  S
O194       Ni195   1.995       .  S
Ni195       O199   1.914       .  S
Ni195       O197   1.913       .  S
O196       Ni201   1.916       .  S
C198        C681   1.471   1_554  S
C198        O199   1.282       .  A
O203       Ni209   1.940       .  S
O203        C224   1.276       .  A
O204       Ni227   1.910       .  S
O204        C213   1.280       .  A
O205       Ni209   1.907       .  S
O205       Ni227   1.900       .  S
O205       Ni221   1.919       .  S
O205        H228   0.967       .  S
C206        C243   1.471       .  S
C206        O223   1.278       .  A
C206        O215   1.279       .  A
O207       Ni226   1.931       .  S
O207        C213   1.275       .  A
O208       Ni226   1.922       .  S
O208        C210   1.270       .  A
Ni209       O212   1.939       .  S
Ni209       O214   1.920       .  S
C210        C340   1.490       .  S
C210        O220   1.267       .  A
O211       Ni227   1.914       .  S
O211        C217   1.268       .  A
O212        C217   1.274       .  A
C213        C666   1.471       .  S
O214        C216   1.278       .  A
O215       Ni226   1.917       .  S
C216        O222   1.298       .  A
C217        C353   1.483       .  S
H218        O219   0.966       .  S
O219       Ni227   1.886       .  S
O219       Ni221   1.869       .  S
O219       Ni226   1.894       .  S
O220       Ni221   1.917       .  S
Ni221       O225   1.875       .  S
Ni221       O223   1.906       .  S
O222       Ni227   1.993       .  S
C224        C333   1.482       .  S
C224        O225   1.263       .  A
C229        C230   1.400       .  A
C229        C234   1.394       .  A
C229        H236   1.084       .  S
C230        C231   1.400       .  A
C231        C232   1.388       .  A
C231        F238   1.358       .  S
C232        C233   1.405       .  A
C232        H237   1.083       .  S
C233        C234   1.410       .  A
C234        F235   1.358       .  S
C239        C240   1.402       .  A
C239        C244   1.394       .  A
C239        H246   1.084       .  S
C240        C241   1.401       .  A
C241        C242   1.389       .  A
C241        F248   1.358       .  S
C242        C243   1.406       .  A
C242        H247   1.083       .  S
C243        C244   1.409       .  A
C244        F245   1.358       .  S
C249        C250   1.406       .  A
C249        C254   1.388       .  A
C249        H256   1.083       .  S
C250        C251   1.411       .  A
C251        C252   1.395       .  A
C251        F258   1.358       .  S
C252        C253   1.400       .  A
C252        H725   1.084       .  S
C253        C254   1.399       .  A
C254        F255   1.358       .  S
H257        C720   1.084       .  S
C259        C260   1.406       .  A
C259        C264   1.388       .  A
C259        H266   1.083       .  S
C260        C261   1.409       .  A
C261        C262   1.395       .  A
C261        F268   1.358       .  S
C262        C263   1.401       .  A
C262        H735   1.084       .  S
C263        C264   1.398       .  A
C264        F265   1.358       .  S
H267        C730   1.084       .  S
C269        C270   1.407       .  A
C269        C274   1.388       .  A
C269        H276   1.083       .  S
C270        C271   1.411       .  A
C271        C272   1.395       .  A
C271        F278   1.358       .  S
C272        C273   1.400       .  A
C272        H745   1.084       .  S
C273        C274   1.398       .  A
C274        F275   1.358       .  S
H277        C740   1.084       .  S
C279        C280   1.407       .  A
C279        C284   1.388       .  A
C279        H286   1.083       .  S
C280        C281   1.410       .  A
C281        C282   1.395       .  A
C281        F288   1.358       .  S
C282        C283   1.401       .  A
C282        H287   1.084       .  S
C283        C284   1.399       .  A
C284        F285   1.358       .  S
C289        C290   1.410       .  A
C289        C294   1.402       .  A
C289        H296   1.083       .  S
C290        C291   1.408       .  A
C291        C292   1.403       .  A
C291        F298   1.357       .  S
C292        C293   1.409       .  A
C292        H297   1.083       .  S
C293        C294   1.408       .  A
C294        F295   1.358       .  S
C299        C304   1.400       .  A
C299        C768   1.408       .  A
C299        H306   1.083       .  S
C300        C301   1.411       .  A
C300        C767   1.408       .  A
C301        C770   1.401   1_554  A
C301        F308   1.357       .  S
C302        C303   1.404       .  A
C302        C769   1.401       .  A
C302        H775   1.084       .  S
C303        C304   1.405       .  A
C304        F305   1.358       .  S
H307        C770   1.084       .  S
C309        C310   1.399       .  A
C309        C314   1.392       .  A
C309        H316   1.084       .  S
C310        C311   1.409       .  A
C311        C312   1.397       .  A
C311        F318   1.358       .  S
C312        C313   1.404       .  A
C312        H317   1.083       .  S
C313        C314   1.415       .  A
C314        F315   1.358       .  S
C319        C320   1.410       .  A
C319        C324   1.402       .  A
C319        H326   1.083       .  S
C320        C321   1.408       .  A
C321        C322   1.403       .  A
C321        F328   1.357       .  S
C322        C323   1.409       .  A
C322        H327   1.083       .  S
C323        C324   1.408       .  A
C324        F325   1.358       .  S
C329        C330   1.408       .  A
C329        C334   1.398       .  A
C329        H336   1.084       .  S
C330        C331   1.403       .  A
C331        C332   1.391       .  A
C331        F338   1.358       .  S
C332        C333   1.410       .  A
C332        H337   1.083       .  S
C333        C334   1.407       .  A
C334        F335   1.357       .  S
C339        C344   1.401       .  A
C339        C808   1.408       .  A
C339        H346   1.083       .  S
C340        C341   1.411       .  A
C340        C807   1.409       .  A
C341        C810   1.401       .  A
C341        F348   1.357       .  S
C342        C343   1.404   1_554  A
C342        C809   1.401   1_554  A
C342        H347   1.084       .  S
C343        C344   1.405       .  A
C344        F345   1.357       .  S
C349        C350   1.412       .  A
C349        C354   1.410       .  A
C349        H356   1.082       .  S
C350        C351   1.414       .  A
C351        C352   1.395       .  A
C351        F358   1.358       .  S
C352        C353   1.400       .  A
C352        H357   1.084       .  S
C353        C354   1.408       .  A
C354        F355   1.357       .  S
C359        C360   1.405       .  A
C359        C832   1.401       .  A
C359        H834   1.084       .  S
C360        C361   1.406       .  A
C361        C362   1.402       .  A
C361        F368   1.357       .  S
C362        C831   1.408       .  A
C362        H367   1.083       .  S
C363        C364   1.408       .  A
C363        C830   1.408       .  A
C364        C827   1.401       .  A
C364        F365   1.357       .  S
H366        C827   1.084   1_556  S
C369        C370   1.404       .  A
C369        C374   1.396       .  A
C369        H376   1.083       .  S
C370        C371   1.415       .  A
C371        C372   1.391       .  A
C371        F378   1.358       .  S
C372        C373   1.397       .  A
C372        H377   1.084       .  S
C373        C374   1.407       .  A
C374        F375   1.358       .  S
C379        C380   1.410       .  A
C379        C384   1.396       .  A
C379        H386   1.082       .  S
C380        C381   1.414       .  A
C381        C382   1.408       .  A
C381        F388   1.356       .  S
C382        C383   1.405       .  A
C382        H387   1.083       .  S
C383        C384   1.402       .  A
C384        F385   1.358       .  S
C389        C390   1.410       .  A
C389        C394   1.390       .  A
C389        H396   1.083       .  S
C390        C391   1.405       .  A
C391        C392   1.397       .  A
C391        F398   1.357       .  S
C392        C393   1.408       .  A
C392        H397   1.084       .  S
C393        C394   1.402       .  A
C394        F395   1.358       .  S
C399        C400   1.405       .  A
C399        C404   1.400       .  A
C399        H406   1.084   1_556  S
C400        C401   1.406       .  A
C401        C870   1.402       .  A
C401        F408   1.357       .  S
C402        C403   1.408       .  A
C402        C869   1.402       .  A
C402        H407   1.083       .  S
C403        C872   1.410       .  A
C404        C871   1.410       .  A
C404        F405   1.357       .  S
C409        C410   1.400       .  A
C409        C414   1.395       .  A
C409        H416   1.084       .  S
C410        C411   1.408       .  A
C411        C412   1.409       .  A
C411        F418   1.357       .  S
C412        C413   1.411       .  A
C412        H417   1.082       .  S
C413        C414   1.414       .  A
C414        F415   1.358       .  S
C419        C420   1.404       .  A
C419        C892   1.399       .  A
C419        H426   1.083       .  S
C420        C889   1.408       .  A
C421        C422   1.403       .  A
C421        C888   1.408       .  A
C421        F428   1.357       .  S
C422        C423   1.406       .  A
C422        H427   1.083       .  S
C423        C424   1.407       .  A
C424        C887   1.399       .  A
C424        F425   1.358       .  S
C429        C430   1.405       .  A
C429        C434   1.396       .  A
C429        H436   1.083       .  S
C430        C431   1.415       .  A
C431        C432   1.392       .  A
C431        F438   1.358       .  S
C432        C433   1.398       .  A
C432        H437   1.084       .  S
C433        C434   1.406       .  A
C434        F435   1.357       .  S
C439        C440   1.412       .  A
C439        C444   1.409       .  A
C439        H446   1.082       .  S
C440        C441   1.414       .  A
C441        C442   1.395       .  A
C441        F448   1.358       .  S
C442        C443   1.400       .  A
C442        H447   1.084       .  S
C443        C444   1.407       .  A
C444        F445   1.357       .  S
C449        C450   1.397       .  A
C449        C454   1.391       .  A
C449        H456   1.084       .  S
C450        C451   1.408       .  A
C451        C452   1.397       .  A
C451        F458   1.358       .  S
C452        C453   1.404       .  A
C452        H457   1.083       .  S
C453        C454   1.416       .  A
C454        F455   1.358       .  S
C459        C460   1.405   1_554  A
C459        C932   1.401   1_554  A
C459        H466   1.084       .  S
C460        C461   1.406       .  A
C461        C462   1.401       .  A
C461        F468   1.357       .  S
C462        C931   1.408       .  A
C462        H467   1.083       .  S
C463        C464   1.409       .  A
C463        C930   1.408       .  A
C464        C927   1.401       .  A
C464        F465   1.357       .  S
C469        C470   1.422       .  A
C469        C474   1.414       .  A
C469        C908   1.502       .  S
C470        C471   1.412       .  A
C470        H475   1.082       .  S
C471        C472   1.390       .  A
C471        C928   1.476       .  S
C472        C473   1.387       .  A
C472        H476   1.086       .  S
C473        C474   1.399       .  A
C473        C918   1.471       .  S
C474        H477   1.083       .  S
C478        C479   1.414       .  A
C478        C483   1.422       .  A
C478        C881   1.502       .  S
C479        C480   1.398       .  A
C479        H484   1.083       .  S
C480        C481   1.387       .  A
C480        C901   1.469       .  S
C481        C482   1.391       .  A
C481        H485   1.087       .  S
C482        C483   1.412       .  A
C482        C891   1.476   1_556  S
C483        H486   1.082       .  S
C487        C488   1.423       .  A
C487        C492   1.415       .  A
C487        C848   1.503       .  S
C488        C489   1.411       .  A
C488        H493   1.081       .  S
C489        C490   1.390       .  A
C489        C868   1.476       .  S
C490        C491   1.388       .  A
C490        H494   1.086       .  S
C491        C492   1.399       .  A
C491        C861   1.474       .  S
C492        H495   1.083       .  S
C496        C497   1.414       .  A
C496        C501   1.423       .  A
C496        C818   1.503       .  S
C497        C498   1.398       .  A
C497        H502   1.083       .  S
C498        C499   1.387       .  A
C498        C841   1.469       .  S
C499        C500   1.390       .  A
C499        H503   1.087       .  S
C500        C501   1.414       .  A
C500        C828   1.477   1_556  S
C501        H504   1.082       .  S
C505        C506   1.420       .  A
C505        C510   1.414       .  A
C505        C788   1.498       .  S
C506        C507   1.410       .  A
C506        H511   1.083       .  S
C507        C508   1.390       .  A
C507        C811   1.476       .  S
C508        C509   1.391       .  A
C508        H512   1.086       .  S
C509        C510   1.402       .  A
C509        C798   1.477       .  S
C510        H513   1.083       .  S
C514        C515   1.413       .  A
C514        C519   1.420       .  A
C514        C758   1.498       .  S
C515        C516   1.402       .  A
C515        H520   1.083       .  S
C516        C517   1.391       .  A
C516        C778   1.476       .  S
C517        C518   1.390       .  A
C517        H521   1.086       .  S
C518        C519   1.410       .  A
C518        C771   1.477   1_556  S
C519        H522   1.083       .  S
O523       Ni529   1.936       .  S
O523        C544   1.275       .  A
O524       Ni547   1.908       .  S
O524        C533   1.279       .  A
O525       Ni529   1.911       .  S
O525       Ni547   1.894       .  S
O525       Ni541   1.924       .  S
O525        H548   0.965       .  S
C526        C748   1.474       .  S
C526        O543   1.277       .  A
C526        O535   1.279       .  A
O527       Ni546   1.936       .  S
O527        C533   1.276       .  A
O528       Ni546   1.920       .  S
O528        C530   1.271       .  A
Ni529       O532   1.946   1_655  S
Ni529       O534   1.916       .  S
C530        C871   1.489       .  S
C530        O540   1.268       .  A
O531       Ni547   1.910   1_455  S
O531        C537   1.266       .  A
O532        C537   1.274       .  A
O534        C536   1.277       .  A
O535       Ni546   1.922       .  S
C536        C556   1.499       .  S
C536        O542   1.300       .  A
C537        C761   1.492       .  S
H538        O539   0.966       .  S
O539       Ni547   1.882       .  S
O539       Ni541   1.870       .  S
O539       Ni546   1.895       .  S
O540       Ni541   1.919       .  S
Ni541       O545   1.874       .  S
Ni541       O543   1.900       .  S
O542       Ni547   1.994       .  S
C544        C858   1.478       .  S
C544        O545   1.263       .  A
O549       Ni555   1.932       .  S
O549        C570   1.275   1_455  A
O550       Ni573   1.878       .  S
O550        C559   1.262       .  A
O551       Ni555   1.895       .  S
O551       Ni573   1.870       .  S
O551       Ni567   1.880   1_455  S
O551        H574   0.966       .  S
C552        C791   1.493       .  S
C552        O569   1.265       .  A
C552        O561   1.273       .  A
O553       Ni572   1.933   1_455  S
O553        C559   1.275       .  A
O554       Ni572   1.911       .  S
O554        C556   1.278       .  A
Ni555       O558   1.921       .  S
Ni555       O560   1.918       .  S
C556        O566   1.303       .  A
O557       Ni573   1.898       .  S
O557        C563   1.277       .  A
O558        C563   1.279       .  A
C559        C898   1.480       .  S
O560        C562   1.270       .  A
O561       Ni572   1.945       .  S
C562        C888   1.483       .  S
C562        O568   1.266       .  A
C563        C738   1.473       .  S
H564        O565   0.968       .  S
O565       Ni573   1.930       .  S
O565       Ni567   1.894   1_455  S
O565       Ni572   1.909   1_455  S
O566       Ni567   2.000       .  S
Ni567       O571   1.912       .  S
Ni567       O569   1.908       .  S
O568       Ni573   1.919       .  S
C570        O571   1.280       .  A
O575       Ni581   1.940   1_545  S
O575        C596   1.276       .  A
O576       Ni599   1.912   1_565  S
O576        C585   1.280   1_565  A
O577       Ni581   1.908   1_545  S
O577       Ni599   1.900       .  S
O577       Ni593   1.920       .  S
O577        H600   0.966       .  S
C578        C728   1.470       .  S
C578        O595   1.276       .  A
C578        O587   1.278       .  A
O579       Ni598   1.930       .  S
O579        C585   1.276       .  A
O580       Ni598   1.925       .  S
O580        C582   1.271       .  A
Ni581       O584   1.937       .  S
Ni581       O586   1.918   1_565  S
C582        C931   1.488       .  S
C582        O592   1.265       .  A
O583       Ni599   1.913   1_565  S
O583        C589   1.268       .  A
O584        C589   1.274       .  A
O586        C588   1.278   1_545  A
O587       Ni598   1.920       .  S
C588        C608   1.500       .  S
C588        O594   1.299       .  A
C589        C878   1.482       .  S
H590        O591   0.966       .  S
O591       Ni599   1.888       .  S
O591       Ni593   1.868       .  S
O591       Ni598   1.900       .  S
O592       Ni593   1.913       .  S
Ni593       O597   1.867       .  S
Ni593       O595   1.899       .  S
O594       Ni599   1.993   1_565  S
C596        C921   1.480       .  S
C596        O597   1.259       .  A
O601       Ni607   1.929       .  S
O601        C622   1.275       .  A
O602       Ni625   1.870       .  S
O602        C611   1.259       .  A
O603       Ni607   1.898       .  S
O603       Ni625   1.868       .  S
O603       Ni619   1.885       .  S
O603        H626   0.966       .  S
C604        C851   1.481       .  S
C604        O621   1.266       .  A
C604        O613   1.273       .  A
O605       Ni624   1.938       .  S
O605        C611   1.275       .  A
O606       Ni624   1.916       .  S
O606        C608   1.278       .  A
Ni607       O610   1.917       .  S
Ni607       O612   1.924       .  S
C608        O618   1.300       .  A
O609       Ni625   1.903       .  S
O609        C615   1.277       .  A
O610        C615   1.278       .  A
C611        C838   1.480       .  S
O612        C614   1.271       .  A
O613       Ni624   1.938   1_545  S
C614        C831   1.488       .  S
C614        O620   1.265       .  A
C615        C718   1.472       .  S
H616        O617   0.966       .  S
O617       Ni625   1.925       .  S
O617       Ni619   1.901       .  S
O617       Ni624   1.909       .  S
O618       Ni619   1.994       .  S
Ni619       O623   1.912       .  S
Ni619       O621   1.910   1_565  S
O620       Ni625   1.915       .  S
C622        O623   1.280       .  A
C627        C628   1.402       .  A
C627        C632   1.397       .  A
C627        C708   1.465       .  S
C628        C629   1.395       .  A
C628        H633   1.084       .  S
C629        C630   1.400       .  A
C629        C751   1.462       .  S
C630        C631   1.393       .  A
C630        H634   1.085       .  S
C631        C632   1.400       .  A
C631        C731   1.461       .  S
C632        H635   1.084       .  S
C636        C637   1.400       .  A
C636        C641   1.395       .  A
C636        C698   1.461       .  S
C637        C638   1.393       .  A
C637        H642   1.085       .  S
C638        C639   1.400       .  A
C638        C741   1.460       .  S
C639        C640   1.395       .  A
C639        H643   1.085       .  S
C640        C641   1.401       .  A
C640        C721   1.462       .  S
C641        H644   1.084       .  S
O645       Ni651   1.927       .  S
O645        C666   1.275       .  A
O646       Ni669   1.875       .  S
O646        C655   1.262       .  A
O647       Ni651   1.892       .  S
O647       Ni669   1.868       .  S
O647       Ni663   1.887       .  S
O647        H670   0.966       .  S
C648        C911   1.481       .  S
C648        O665   1.268       .  A
C648        O657   1.274       .  A
O649       Ni668   1.940       .  S
O649        C655   1.277       .  A
O650       Ni668   1.919       .  S
O650        C652   1.278       .  A
Ni651       O654   1.915       .  S
Ni651       O656   1.924       .  S
C652        C684   1.501       .  S
C652        O662   1.299       .  A
O653       Ni669   1.907       .  S
O653        C659   1.279       .  A
O654        C659   1.278       .  A
C655        C781   1.482       .  S
O656        C658   1.270       .  A
O657       Ni668   1.938       .  S
C658        C768   1.490       .  S
C658        O664   1.267       .  A
C659        C701   1.470       .  S
H660        O661   0.966       .  S
O661       Ni669   1.920       .  S
O661       Ni663   1.899       .  S
O661       Ni668   1.905       .  S
O662       Ni663   1.995       .  S
Ni663       O667   1.914       .  S
Ni663       O665   1.913       .  S
O664       Ni669   1.916       .  S
C666        O667   1.282       .  A
O671       Ni677   1.940       .  S
O671        C692   1.276       .  A
O672       Ni695   1.910       .  S
O672        C681   1.280       .  A
O673       Ni677   1.907       .  S
O673       Ni695   1.900       .  S
O673       Ni689   1.919       .  S
O673        H696   0.967       .  S
C674        C711   1.471       .  S
C674        O691   1.278       .  A
C674        O683   1.279       .  A
O675       Ni694   1.931       .  S
O675        C681   1.275       .  A
O676       Ni694   1.922       .  S
O676        C678   1.270       .  A
Ni677       O680   1.939       .  S
Ni677       O682   1.920       .  S
C678        C808   1.490       .  S
C678        O688   1.267       .  A
O679       Ni695   1.914       .  S
O679        C685   1.268       .  A
O680        C685   1.274       .  A
O682        C684   1.278       .  A
O683       Ni694   1.917       .  S
C684        O690   1.298       .  A
C685        C821   1.483       .  S
H686        O687   0.966       .  S
O687       Ni695   1.887       .  S
O687       Ni689   1.869       .  S
O687       Ni694   1.894       .  S
O688       Ni689   1.917       .  S
Ni689       O693   1.875       .  S
Ni689       O691   1.906       .  S
O690       Ni695   1.993       .  S
C692        C801   1.482       .  S
C692        O693   1.263       .  A
C697        C698   1.400       .  A
C697        C702   1.394       .  A
C697        H704   1.084       .  S
C698        C699   1.400       .  A
C699        C700   1.388       .  A
C699        F706   1.358       .  S
C700        C701   1.405       .  A
C700        H705   1.083       .  S
C701        C702   1.410       .  A
C702        F703   1.358       .  S
C707        C708   1.402       .  A
C707        C712   1.394       .  A
C707        H714   1.084       .  S
C708        C709   1.401       .  A
C709        C710   1.389       .  A
C709        F716   1.358       .  S
C710        C711   1.406       .  A
C710        H715   1.083       .  S
C711        C712   1.409       .  A
C712        F713   1.358       .  S
C717        C718   1.406       .  A
C717        C722   1.388       .  A
C717        H724   1.083       .  S
C718        C719   1.411       .  A
C719        C720   1.395       .  A
C719        F726   1.358       .  S
C720        C721   1.400       .  A
C721        C722   1.399       .  A
C722        F723   1.358       .  S
C727        C728   1.406       .  A
C727        C732   1.388       .  A
C727        H734   1.083       .  S
C728        C729   1.409       .  A
C729        C730   1.395       .  A
C729        F736   1.358       .  S
C730        C731   1.401       .  A
C731        C732   1.398       .  A
C732        F733   1.358       .  S
C737        C738   1.407       .  A
C737        C742   1.388       .  A
C737        H744   1.083       .  S
C738        C739   1.411       .  A
C739        C740   1.395       .  A
C739        F746   1.358       .  S
C740        C741   1.400       .  A
C741        C742   1.398       .  A
C742        F743   1.358       .  S
C747        C748   1.407       .  A
C747        C752   1.388       .  A
C747        H754   1.083       .  S
C748        C749   1.410       .  A
C749        C750   1.395       .  A
C749        F756   1.358       .  S
C750        C751   1.401       .  A
C750        H755   1.084       .  S
C751        C752   1.399       .  A
C752        F753   1.358       .  S
C757        C758   1.410       .  A
C757        C762   1.402       .  A
C757        H764   1.083       .  S
C758        C759   1.408       .  A
C759        C760   1.403       .  A
C759        F766   1.357       .  S
C760        C761   1.409       .  A
C760        H765   1.083       .  S
C761        C762   1.408       .  A
C762        F763   1.358       .  S
C767        C772   1.400       .  A
C767        H774   1.083       .  S
C768        C769   1.411       .  A
C769        F776   1.357       .  S
C770        C771   1.404   1_556  A
C771        C772   1.405       .  A
C772        F773   1.358       .  S
C777        C778   1.399       .  A
C777        C782   1.392       .  A
C777        H784   1.084       .  S
C778        C779   1.409       .  A
C779        C780   1.397       .  A
C779        F786   1.358       .  S
C780        C781   1.404       .  A
C780        H785   1.083       .  S
C781        C782   1.415       .  A
C782        F783   1.358       .  S
C787        C788   1.410       .  A
C787        C792   1.402       .  A
C787        H794   1.083       .  S
C788        C789   1.408       .  A
C789        C790   1.403       .  A
C789        F796   1.357       .  S
C790        C791   1.409       .  A
C790        H795   1.083       .  S
C791        C792   1.408       .  A
C792        F793   1.358       .  S
C797        C798   1.408       .  A
C797        C802   1.398       .  A
C797        H804   1.084       .  S
C798        C799   1.403       .  A
C799        C800   1.391       .  A
C799        F806   1.358       .  S
C800        C801   1.410       .  A
C800        H805   1.083       .  S
C801        C802   1.407       .  A
C802        F803   1.357       .  S
C807        C812   1.401       .  A
C807        H814   1.083       .  S
C808        C809   1.411       .  A
C809        F816   1.357       .  S
C810        C811   1.404       .  A
C810        H815   1.084       .  S
C811        C812   1.405       .  A
C812        F813   1.357       .  S
C817        C818   1.412       .  A
C817        C822   1.410       .  A
C817        H824   1.082       .  S
C818        C819   1.414       .  A
C819        C820   1.395       .  A
C819        F826   1.358       .  S
C820        C821   1.400       .  A
C820        H825   1.084       .  S
C821        C822   1.408       .  A
C822        F823   1.357       .  S
C827        C828   1.405       .  A
C828        C829   1.406       .  A
C829        C830   1.402       .  A
C829        F836   1.357       .  S
C830        H835   1.083       .  S
C831        C832   1.408       .  A
C832        F833   1.357       .  S
C837        C838   1.404       .  A
C837        C842   1.396       .  A
C837        H844   1.083       .  S
C838        C839   1.415       .  A
C839        C840   1.391       .  A
C839        F846   1.358       .  S
C840        C841   1.397       .  A
C840        H845   1.084       .  S
C841        C842   1.407       .  A
C842        F843   1.358       .  S
C847        C848   1.410       .  A
C847        C852   1.396       .  A
C847        H854   1.082       .  S
C848        C849   1.414       .  A
C849        C850   1.408       .  A
C849        F856   1.356       .  S
C850        C851   1.405       .  A
C850        H855   1.083       .  S
C851        C852   1.402       .  A
C852        F853   1.358       .  S
C857        C858   1.410       .  A
C857        C862   1.390       .  A
C857        H864   1.083       .  S
C858        C859   1.405       .  A
C859        C860   1.397       .  A
C859        F866   1.357       .  S
C860        C861   1.408       .  A
C860        H865   1.084       .  S
C861        C862   1.402       .  A
C862        F863   1.358       .  S
C867        C868   1.405       .  A
C867        C872   1.400       .  A
C867        H874   1.084       .  S
C868        C869   1.406       .  A
C869        F876   1.357       .  S
C870        C871   1.408       .  A
C870        H875   1.083       .  S
C872        F873   1.357       .  S
C877        C878   1.400       .  A
C877        C882   1.395       .  A
C877        H884   1.084       .  S
C878        C879   1.408       .  A
C879        C880   1.409       .  A
C879        F886   1.357       .  S
C880        C881   1.411       .  A
C880        H885   1.082       .  S
C881        C882   1.414       .  A
C882        F883   1.358       .  S
C887        C888   1.404       .  A
C887        H894   1.083       .  S
C889        C890   1.403       .  A
C889        F896   1.357       .  S
C890        C891   1.406       .  A
C890        H895   1.083       .  S
C891        C892   1.407       .  A
C892        F893   1.358   1_554  S
C897        C898   1.405       .  A
C897        C902   1.396       .  A
C897        H904   1.083       .  S
C898        C899   1.415       .  A
C899        C900   1.392       .  A
C899        F906   1.358       .  S
C900        C901   1.398       .  A
C900        H905   1.084       .  S
C901        C902   1.406       .  A
C902        F903   1.357       .  S
C907        C908   1.412       .  A
C907        C912   1.409       .  A
C907        H914   1.082       .  S
C908        C909   1.414       .  A
C909        C910   1.395       .  A
C909        F916   1.358       .  S
C910        C911   1.400       .  A
C910        H915   1.084       .  S
C911        C912   1.407       .  A
C912        F913   1.357       .  S
C917        C918   1.397       .  A
C917        C922   1.391       .  A
C917        H924   1.084       .  S
C918        C919   1.408       .  A
C919        C920   1.397       .  A
C919        F926   1.358       .  S
C920        C921   1.404       .  A
C920        H925   1.083       .  S
C921        C922   1.416       .  A
C922        F923   1.358       .  S
C927        C928   1.405       .  A
C927        H934   1.084       .  S
C928        C929   1.406       .  A
C929        C930   1.401       .  A
C929        F936   1.357       .  S
C930        H935   1.083       .  S
C931        C932   1.409       .  A
C932        F933   1.357       .  S
