geometry optimzed in LAMMPS
_audit_creation_date              2020-11-30 
_audit_creation_method            'lammps2cif' 
_symmetry_space_group_name_H-M    'P1' 
_symmetry_Int_Tables_number       1 
_symmetry_cell_setting            triclinic 
loop_ 
_symmetry_equiv_pos_as_xyz 
  x,y,z 
_cell_length_a                    36.77022613 
_cell_length_b                    35.61411995086372 
_cell_length_c                    35.72243996821533 
_cell_angle_alpha                 89.07275527187996 
_cell_angle_beta                  87.54394052879482 
_cell_angle_gamma                 90.35183903773998 
loop_ 
_atom_site_label 
_atom_site_type_symbol 
_atom_site_fract_x 
_atom_site_fract_y 
_atom_site_fract_z 
_atom_site_charge 
N1          N  0.88050506  0.38250304  0.02034414    -0.02200
C2          C  0.84496702  0.38522262  0.03223866     0.00400
C3          C  0.83678578  0.35818937  0.05973086    -0.22500
C4          C  0.86753872  0.33733187  0.06379583    -0.22700
C5          C  0.89367668  0.35211488  0.03886750     0.00300
H6          H  0.81069534  0.35294360  0.07410297     0.14100
H7          H  0.86960169  0.31195869  0.08065155     0.14100
N8          N  0.87211817  0.35041933  0.43259291    -0.02200
C9          C  0.83750290  0.35816569  0.42327450     0.00400
C10         C  0.82588770  0.33253020  0.39758692    -0.22500
C11         C  0.85386294  0.30791587  0.39140182    -0.22700
C12         C  0.88196462  0.31909103  0.41345982     0.00300
H13         H  0.79904265  0.33019406  0.38651948     0.14100
H14         H  0.85238044  0.28263920  0.37511186     0.14100
N15         N  0.57547516  0.90077909  0.94139752    -0.02200
C16         C  0.61023429  0.90502025  0.92748561     0.00400
C17         C  0.61774815  0.87863553  0.90024157    -0.22500
C18         C  0.58725722  0.85660548  0.89828857    -0.22700
C19         C  0.56205355  0.86997313  0.92443821     0.00300
H20         H  0.64367133  0.87393018  0.88561590     0.14100
H21         H  0.58539404  0.83076874  0.88291059     0.14100
N22         N  0.56025799  0.87996019  0.51858079    -0.02200
C23         C  0.54452336  0.85092546  0.53892551     0.00400
C24         C  0.56851300  0.83634824  0.56388392    -0.22500
C25         C  0.60060280  0.85550413  0.55780797    -0.22700
C26         C  0.59522979  0.88159169  0.52948524     0.00300
H27         H  0.56444453  0.81155275  0.58153823     0.14100
H28         H  0.62607331  0.84902938  0.57051199     0.14100
O29         O  0.90510256  0.94403546  0.94211762    -0.77200
C30         C  0.98875984  0.98176273  0.86153225     0.83800
O31         O  0.01312974  0.89700012  0.99418410    -0.78300
O32         O  0.06583659  0.01173225  0.94419599    -0.79800
O33         O  0.94781966  0.06683151  0.98569085    -0.79600
O34         O  0.89072573  0.99055449  0.98100515    -0.78200
Zn35       Zn  0.95969371  0.94315923  0.93412888     1.55700
O36         O  0.99544869  0.07203874  0.94506294    -0.79600
Cd37       Cd  0.94251401  0.00881250  0.99512600     1.59700
Cd38       Cd  0.01442066  0.95464210  0.00167375     1.59600
O39         O  0.94759926  0.99923828  0.05224777    -0.79600
O40         O  0.98139001  0.98038709  0.96621139    -1.90100
Cd41       Cd  0.01096258  0.01712484  0.93483020     1.59900
O42         O  0.99779708  0.96471145  0.05668130    -0.79600
O43         O  0.00469586  0.00760977  0.87887095    -0.78200
C44         C  0.99704606  0.87622542  0.97124560     0.84300
C45         C  0.88155077  0.96357545  0.96016709     0.84000
O46         O  0.97136816  0.95514351  0.87887272    -0.77200
C47         C  0.97030165  0.08678605  0.96548846     0.84800
O48         O  0.97645073  0.89002313  0.94670638    -0.77300
C49         C  0.97083846  0.98212700  0.07170315     0.84900
C50         C  0.08385449  0.99361653  0.96820576     0.85200
O51         O  0.06834201  0.97211409  0.99298732    -0.79700
O52         O  0.94456922  0.86130620  0.49256657    -0.77200
C53         C  0.96163187  0.94965533  0.57258597     0.83800
O54         O  0.88413035  0.96701288  0.44020237    -0.78300
O55         O  0.98554482  0.03826047  0.48582792    -0.79800
O56         O  0.05761443  0.92323291  0.45696195    -0.79600
O57         O  0.99216203  0.85641828  0.45235959    -0.78200
Zn58       Zn  0.93575378  0.91652322  0.49988029     1.55700
O59         O  0.05202482  0.97466629  0.49162082    -0.79600
Cd60       Cd  0.00445160  0.91287861  0.44113672     1.59700
Cd61       Cd  0.94020666  0.97653908  0.43153294     1.59600
O62         O  0.00226313  0.92229277  0.38372921    -0.79600
O63         O  0.96891685  0.94684066  0.46818562    -1.90100
Cd64       Cd  0.99643096  0.98261772  0.49953172     1.59900
O65         O  0.95694226  0.96311708  0.37707503    -0.79600
O66         O  0.98340154  0.97323194  0.55609693    -0.78200
C67         C  0.86685109  0.94620553  0.46444654     0.84300
C68         C  0.96724744  0.84147183  0.47377207     0.84000
O69         O  0.94240100  0.92705376  0.55437910    -0.77200
C70         C  0.07151001  0.94956463  0.47563051     0.84800
O71         O  0.88352818  0.92654480  0.48833590    -0.77300
C72         C  0.98208993  0.94225862  0.36322586     0.84900
C73         C  0.96748971  0.05328901  0.45992348     0.85200
O74         O  0.94972834  0.03366016  0.43724070    -0.79700
N75         N  0.07602369  0.58103667  0.92339858    -0.02200
C76         C  0.11194898  0.58079372  0.91254710     0.00400
C77         C  0.11903898  0.60799739  0.88498362    -0.22500
C78         C  0.08707762  0.62652512  0.87983473    -0.22700
C79         C  0.06134949  0.61021927  0.90427466     0.00300
H80         H  0.14521376  0.61522014  0.87169775     0.14100
H81         H  0.08389849  0.65174507  0.86299938     0.14100
N82         N  0.07513909  0.54114369  0.50032084    -0.02200
C83         C  0.10771908  0.53571220  0.51605512     0.00400
C84         C  0.11506730  0.56513337  0.53955472    -0.22500
C85         C  0.08667629  0.58966853  0.53761199    -0.22700
C86         C  0.06267263  0.57473459  0.51291923     0.00300
H87         H  0.13981458  0.57005282  0.55411809     0.14100
H88         H  0.08561811  0.61716608  0.55005699     0.14100
N89         N  0.37656354  0.09766508  0.94136670    -0.02200
C90         C  0.34479124  0.09231288  0.92408232     0.00400
C91         C  0.33841558  0.12228355  0.90009794    -0.22500
C92         C  0.36667531  0.14713146  0.90330494    -0.22700
C93         C  0.38952099  0.13171214  0.92901528     0.00300
H94         H  0.31437155  0.12718997  0.88432781     0.14100
H95         H  0.36846357  0.17513085  0.89108377     0.14100
N96         N  0.35813398  0.07425130  0.51082297    -0.02200
C97         C  0.32409591  0.06417005  0.52366650     0.00400
C98         C  0.31086708  0.08985938  0.54935278    -0.22500
C99         C  0.33717482  0.11708220  0.55177481    -0.22700
C100        C  0.36592558  0.10724666  0.52756915     0.00300
H101        H  0.28379988  0.09056136  0.56247008     0.14100
H102        H  0.33401764  0.14295359  0.56700879     0.14100
O103        O  0.46446734  0.48582065  0.89885169    -0.77200
C104        C  0.44941445  0.39811305  0.98531767     0.83800
O105        O  0.40127629  0.54340600  0.00595473    -0.78300
O106        O  0.48260002  0.47093640  0.07802174    -0.79800
O107        O  0.57190289  0.49418350  0.97667479    -0.79600
O108        O  0.51973735  0.51120460  0.90366163    -0.78200
Zn109      Zn  0.44465518  0.47842696  0.95287246     1.55700
O110        O  0.55129296  0.45030826  0.01759011    -0.79600
Cd111      Cd  0.52403625  0.51970592  0.96040202     1.59700
Cd112      Cd  0.45577914  0.53934879  0.01734166     1.59600
O113        O  0.52866473  0.57714048  0.96856013    -0.79600
O114        O  0.47949462  0.49842860  0.98767046    -1.90100
Cd115      Cd  0.49546955  0.45772414  0.02259157     1.59900
O116        O  0.47983146  0.59115107  0.00475367    -0.79600
O117        O  0.47179583  0.40677292  0.01010795    -0.78200
C118        C  0.38155128  0.52739110  0.98239548     0.84300
C119        C  0.49457161  0.49818579  0.88402293     0.84000
O120        O  0.43724838  0.42250226  0.96259775    -0.77200
C121        C  0.57734081  0.46671250  0.99905096     0.84800
O122        O  0.39450619  0.50282260  0.95992237    -0.77300
C123        C  0.50863767  0.60091725  0.98583011     0.84900
C124        C  0.46967059  0.50039499  0.09336396     0.85200
O125        O  0.45937774  0.52859682  0.07421185    -0.79700
O126        O  0.39185537  0.46161154  0.47988653    -0.77200
C127        C  0.46954034  0.46930992  0.38532306     0.83800
O128        O  0.49746750  0.39658485  0.52318376    -0.78300
O129        O  0.56321961  0.49298607  0.45119655    -0.79800
O130        O  0.46597523  0.57522428  0.49890028    -0.79600
O131        O  0.39713499  0.51314944  0.51389455    -0.78200
Zn132      Zn  0.44440026  0.44730072  0.46557872     1.55700
O133        O  0.50714571  0.56599969  0.45248736    -0.79600
Cd134      Cd  0.45247096  0.52092379  0.51705037     1.59700
Cd135      Cd  0.51209397  0.45308890  0.52216603     1.59600
O136        O  0.46362535  0.51646766  0.57294035    -0.79600
O137        O  0.47918544  0.48148605  0.48808622    -1.90100
Cd138      Cd  0.50944392  0.50802950  0.44812014     1.59900
O139        O  0.50586988  0.47200381  0.57733166    -0.79600
O140        O  0.49264078  0.49336701  0.39586427    -0.78200
C141        C  0.47386923  0.37778083  0.50605899     0.84300
C142        C  0.37771792  0.48831442  0.49886059     0.84000
O143        O  0.45022340  0.44953673  0.40877047    -0.77200
C144        C  0.48849695  0.58784335  0.47354438     0.84800
O145        O  0.45257620  0.39340082  0.48324671    -0.77300
C146        C  0.48473446  0.49648470  0.59222779     0.84900
C147        C  0.58147714  0.47325406  0.47363750     0.85200
O148        O  0.56663830  0.45674490  0.50250159    -0.79700
C149        C  0.49552781  0.48433365  0.69879738     0.20000
C150        C  0.52420478  0.47749451  0.72260232    -0.18100
C151        C  0.51847884  0.47887792  0.76158460    -0.10400
C152        C  0.48370155  0.48670754  0.77756848     0.22200
C153        C  0.45487933  0.49262736  0.75375379    -0.19700
C154        C  0.46068240  0.49165427  0.71483961    -0.10600
C155        C  0.47625357  0.48751668  0.81883698    -0.14700
C156        C  0.50160296  0.49731615  0.84297249    -0.28600
C157        C  0.50197440  0.48159252  0.65750567    -0.02900
C158        C  0.48268764  0.50170491  0.63321182    -0.39400
H159        H  0.55110859  0.47108113  0.71099210     0.13400
H160        H  0.54112385  0.47292292  0.77905833     0.13000
H161        H  0.42774145  0.49808517  0.76531552     0.12400
H162        H  0.43758921  0.49567814  0.69746011     0.12700
H163        H  0.44869892  0.48133734  0.82948991     0.15400
H164        H  0.52857111  0.50581579  0.83238261     0.14200
H165        H  0.52288332  0.46258568  0.64697231     0.11900
H166        H  0.46323896  0.52219736  0.64381114     0.13900
C167        C  0.47818565  0.48254180  0.27769409     0.20000
C168        C  0.48623687  0.51389834  0.25447500    -0.18100
C169        C  0.48448796  0.51158839  0.21561455    -0.10400
C170        C  0.47482713  0.47762836  0.19898577     0.22200
C171        C  0.46734572  0.44602540  0.22209891    -0.19700
C172        C  0.46877473  0.44842577  0.26111510    -0.10600
C173        C  0.47450077  0.47396878  0.15762395    -0.14700
C174        C  0.46717520  0.50298473  0.13459876    -0.28600
C175        C  0.48185649  0.48632503  0.31872098    -0.02900
C176        C  0.46490180  0.46395227  0.34482927    -0.39400
H177        H  0.49413178  0.54032762  0.26646397     0.13400
H178        H  0.49173688  0.53618841  0.19868473     0.13000
H179        H  0.46047721  0.41938446  0.20990536     0.12400
H180        H  0.46346933  0.42333230  0.27796808     0.12700
H181        H  0.48010721  0.44653669  0.14588405     0.15400
H182        H  0.45923628  0.52984754  0.14622016     0.14200
H183        H  0.49848189  0.50952494  0.32783070     0.11900
H184        H  0.44660944  0.44182172  0.33663523     0.13900
C185        C  0.42267844  0.19845008  0.52385169     0.20000
C186        C  0.43565678  0.22271218  0.55094681    -0.18100
C187        C  0.44635865  0.25951766  0.54143502    -0.10400
C188        C  0.44425566  0.27310199  0.50438369     0.22200
C189        C  0.43255055  0.24843123  0.47695964    -0.19700
C190        C  0.42201813  0.21144532  0.48646465    -0.10600
C191        C  0.45049953  0.31352693  0.49427699    -0.14700
C192        C  0.47094369  0.33689844  0.51412978    -0.28600
C193        C  0.40448985  0.16283795  0.53696915    -0.02900
C194        C  0.39501202  0.13437106  0.51480274    -0.39400
H195        H  0.43591079  0.21370897  0.58005265     0.13400
H196        H  0.45426678  0.27771023  0.56366730     0.13000
H197        H  0.43036895  0.25820969  0.44827619     0.12400
H198        H  0.41139465  0.19402680  0.46489312     0.12700
H199        H  0.43739051  0.32450780  0.46973716     0.15400
H200        H  0.48612310  0.32597553  0.53725576     0.14200
H201        H  0.39553500  0.16151628  0.56635843     0.11900
H202        H  0.40552082  0.13306472  0.48601912     0.13900
C203        C  0.41616722  0.21631534  0.98359690     0.20000
C204        C  0.39207249  0.24500610  0.99437942    -0.18100
C205        C  0.40461306  0.28167329  0.99876870    -0.10400
C206        C  0.44173619  0.29037434  0.99307083     0.22200
C207        C  0.46626000  0.26138328  0.98438966    -0.19700
C208        C  0.45358528  0.22466112  0.97925240    -0.10600
C209        C  0.45513006  0.32953129  0.99620737    -0.14700
C210        C  0.43654464  0.35893344  0.98278478    -0.28600
C211        C  0.40039783  0.17908524  0.97497924    -0.02900
C212        C  0.41473653  0.15602500  0.94885918    -0.39400
H213        H  0.36315734  0.23931651  0.99817359     0.13400
H214        H  0.38522782  0.30326328  0.00652488     0.13000
H215        H  0.49509383  0.26740778  0.98046509     0.12400
H216        H  0.47299151  0.20305873  0.97171111     0.12700
H217        H  0.48160427  0.33408798  0.00782123     0.15400
H218        H  0.41170589  0.35402521  0.96813051     0.14200
H219        H  0.37251548  0.17365896  0.98521130     0.11900
H220        H  0.44110408  0.16212998  0.93528633     0.13900
C221        C  0.19926515  0.48520116  0.51671906     0.20000
C222        C  0.22499553  0.48368214  0.54463779    -0.18100
C223        C  0.26170748  0.47766455  0.53553007    -0.10400
C224        C  0.27379065  0.47277479  0.49812566     0.22200
C225        C  0.24794394  0.47162121  0.47031395    -0.19700
C226        C  0.21096163  0.47816223  0.47939124    -0.10600
C227        C  0.31334533  0.46974343  0.48811020    -0.14700
C228        C  0.33788676  0.49083030  0.50539268    -0.28600
C229        C  0.16224137  0.49892005  0.52796045    -0.02900
C230        C  0.13548433  0.50742882  0.50463928    -0.39400
H231        H  0.21693269  0.48874885  0.57364014     0.13400
H232        H  0.28076909  0.47743419  0.55781389     0.13000
H233        H  0.25659648  0.46734027  0.44134123     0.12400
H234        H  0.19213425  0.47891117  0.45698701     0.12700
H235        H  0.32217673  0.45118634  0.46571059     0.15400
H236        H  0.32833129  0.51133761  0.52569633     0.14200
H237        H  0.15843108  0.50716685  0.55703318     0.11900
H238        H  0.13655040  0.49832001  0.47582906     0.13900
C239        C  0.20774017  0.56032063  0.94791433     0.20000
C240        C  0.23435403  0.58444428  0.96138370    -0.18100
C241        C  0.26967165  0.57194685  0.96681082    -0.10400
C242        C  0.27948579  0.53466967  0.95895246     0.22200
C243        C  0.25259506  0.51016310  0.94630201    -0.19700
C244        C  0.21698185  0.52275695  0.94095532    -0.10600
C245        C  0.31790884  0.52148769  0.96109767    -0.14700
C246        C  0.34286971  0.53867921  0.98163551    -0.28600
C247        C  0.17306088  0.57740119  0.93641442    -0.02900
C248        C  0.14142204  0.55937353  0.93042888    -0.39400
H249        H  0.22817182  0.61369522  0.96640301     0.13400
H250        H  0.28944233  0.59227399  0.97544708     0.13000
H251        H  0.25940403  0.48141149  0.93967821     0.12400
H252        H  0.19739490  0.50364387  0.92971420     0.12700
H253        H  0.32585278  0.49683199  0.94528007     0.15400
H254        H  0.33485660  0.56183987  0.99943766     0.14200
H255        H  0.17409083  0.60762285  0.93149507     0.11900
H256        H  0.13754014  0.52990779  0.93778945     0.13900
C257        C  0.23980285  0.00397339  0.51015472     0.20000
C258        C  0.21964896  0.97505333  0.52869386    -0.18100
C259        C  0.18443911  0.96607028  0.51791130    -0.10400
C260        C  0.16844229  0.98681285  0.48922115     0.22200
C261        C  0.18897579  0.01486274  0.46997002    -0.19700
C262        C  0.22451259  0.02299471  0.47989308    -0.10600
C263        C  0.12901565  0.98369648  0.48278797    -0.14700
C264        C  0.11141570  0.95081511  0.47941436    -0.28600
C265        C  0.27291607  0.01908371  0.52709761    -0.02900
C266        C  0.30061553  0.03545792  0.50688512    -0.39400
H267        H  0.23056142  0.96054847  0.55257718     0.13400
H268        H  0.16883142  0.94480397  0.53366848     0.13000
H269        H  0.17694788  0.03151105  0.44812950     0.12400
H270        H  0.23888300  0.04614923  0.46576173     0.12700
H271        H  0.11403033  0.00974355  0.47998614     0.15400
H272        H  0.12655983  0.92471983  0.47880712     0.14200
H273        H  0.27233901  0.02081615  0.55747036     0.11900
H274        H  0.30287433  0.03194344  0.47674040     0.13900
C275        C  0.98983578  0.73549126  0.47285974     0.20000
C276        C  0.00873993  0.71067097  0.44893673    -0.18100
C277        C  0.01577633  0.67372163  0.46061350    -0.10400
C278        C  0.00420113  0.66097519  0.49671904     0.22200
C279        C  0.98375204  0.68517049  0.51980292    -0.19700
C280        C  0.97662122  0.72190669  0.50814975    -0.10600
C281        C  0.01899929  0.62643526  0.51412878    -0.14700
C282        C  0.03454566  0.59792972  0.49515000    -0.28600
C283        C  0.98818599  0.77614126  0.46225346    -0.02900
C284        C  0.96464172  0.80022583  0.47875590    -0.39400
H285        H  0.01951728  0.72040398  0.42176908     0.13400
H286        H  0.03240742  0.65625943  0.44234518     0.13000
H287        H  0.97506390  0.67632316  0.54796374     0.12400
H288        H  0.96284441  0.74004409  0.52805335     0.12700
H289        H  0.02123266  0.62674046  0.54438348     0.15400
H290        H  0.03082688  0.59488428  0.46538269     0.14200
H291        H  0.00822432  0.78687244  0.44145918     0.11900
H292        H  0.94332241  0.78977083  0.49817242     0.13900
C293        C  0.25636303  0.03493996  0.91942928     0.20000
C294        C  0.23609029  0.02143821  0.89004957    -0.18100
C295        C  0.19965959  0.01100121  0.89615208    -0.10400
C296        C  0.18257328  0.01356642  0.93184696     0.22200
C297        C  0.20325699  0.02513089  0.96191184    -0.19700
C298        C  0.23986820  0.03581061  0.95574631    -0.10600
C299        C  0.14250104  0.00800556  0.93537573    -0.14700
C300        C  0.12397420  0.99749747  0.96716279    -0.28600
C301        C  0.29177734  0.05371077  0.90955194    -0.02900
C302        C  0.31707990  0.06285568  0.93405798    -0.39400
H303        H  0.24796994  0.02073365  0.86178451     0.13400
H304        H  0.18434904  0.00222347  0.87252599     0.13000
H305        H  0.19072217  0.02816441  0.98964989     0.12400
H306        H  0.25428502  0.04695358  0.97892622     0.12700
H307        H  0.12751557  0.01216074  0.91005754     0.15400
H308        H  0.13835580  0.99023069  0.99215467     0.14200
H309        H  0.29589391  0.06325483  0.88060744     0.11900
H310        H  0.31540613  0.05172820  0.96252156     0.13900
C311        C  0.99398799  0.76902841  0.95303528     0.20000
C312        C  0.98678391  0.74783398  0.92136999    -0.18100
C313        C  0.99665148  0.70996436  0.91939495    -0.10400
C314        C  0.01370875  0.69213866  0.94943406     0.22200
C315        C  0.01880257  0.71279437  0.98201772    -0.19700
C316        C  0.00896814  0.75067593  0.98394601    -0.10600
C317        C  0.03162994  0.65470989  0.94599993    -0.14700
C318        C  0.02898684  0.63191859  0.91647158    -0.28600
C319        C  0.98627609  0.81016286  0.95227082    -0.02900
C320        C  0.00312751  0.83515764  0.97371421    -0.39400
H321        H  0.97487776  0.76106590  0.89731548     0.13400
H322        H  0.99240744  0.69569006  0.89349437     0.13000
H323        H  0.03174488  0.69994559  0.00566236     0.12400
H324        H  0.01368246  0.76546540  0.00950161     0.12700
H325        H  0.05271895  0.64861858  0.96563960     0.15400
H326        H  0.00903495  0.63715888  0.89562454     0.14200
H327        H  0.96764504  0.82048699  0.93171579     0.11900
H328        H  0.02290350  0.82562520  0.99336845     0.13900
C329        C  0.97593533  0.96675487  0.67766923     0.20000
C330        C  0.00445003  0.98227846  0.69736608    -0.18100
C331        C  0.00421704  0.97996032  0.73648029    -0.10400
C332        C  0.97503964  0.96243416  0.75691948     0.22200
C333        C  0.94653234  0.94689840  0.73727012    -0.19700
C334        C  0.94672098  0.94927654  0.69814513    -0.10600
C335        C  0.97358139  0.95947687  0.79855335    -0.14700
C336        C  0.99098012  0.98367722  0.82020374    -0.28600
C337        C  0.97772490  0.96964573  0.63598998    -0.02900
C338        C  0.95833103  0.94755178  0.61390521    -0.39400
H339        H  0.02731083  0.99582740  0.68238635     0.13400
H340        H  0.02728459  0.99134011  0.75039059     0.13000
H341        H  0.92371907  0.93332136  0.75230180     0.12400
H342        H  0.92362268  0.93785593  0.68436316     0.12700
H343        H  0.95631907  0.93776053  0.81180132     0.15400
H344        H  0.00663877  0.00680766  0.80746579     0.14200
H345        H  0.99689990  0.98975679  0.62296088     0.11900
H346        H  0.94016377  0.92615194  0.62608412     0.13900
C347        C  0.98446746  0.96548963  0.17745053     0.20000
C348        C  0.00012143  0.93645879  0.19821191    -0.18100
C349        C  0.99612435  0.93515992  0.23735047    -0.10400
C350        C  0.97674164  0.96338550  0.25672024     0.22200
C351        C  0.96170489  0.99278256  0.23589249    -0.19700
C352        C  0.96561107  0.99399532  0.19678601    -0.10600
C353        C  0.97065420  0.96306567  0.29827082    -0.14700
C354        C  0.98869949  0.94100575  0.32211746    -0.28600
C355        C  0.98891480  0.96537789  0.13586104    -0.02900
C356        C  0.96602681  0.98292376  0.11297288    -0.39400
H357        H  0.01496567  0.91426377  0.18403071     0.13400
H358        H  0.00771539  0.91159362  0.25191976     0.13000
H359        H  0.94686864  0.01504621  0.24996792     0.12400
H360        H  0.95418214  0.01755584  0.18198772     0.12700
H361        H  0.95076187  0.98264982  0.30982896     0.15400
H362        H  0.00972064  0.92217055  0.31179212     0.14200
H363        H  0.01116256  0.94903886  0.12365319     0.11900
H364        H  0.94261520  0.99786153  0.12452025     0.13900
C365        C  0.44129704  0.01350487  0.48978812     0.20000
C366        C  0.47925519  0.01654630  0.49257202    -0.18100
C367        C  0.50125806  0.98445036  0.49269553    -0.10400
C368        C  0.48560272  0.94844646  0.49037059     0.22200
C369        C  0.44799359  0.94561402  0.48542740    -0.19700
C370        C  0.42609173  0.97760497  0.48503181    -0.10600
C371        C  0.50565600  0.91352353  0.49992632    -0.14700
C372        C  0.54225196  0.90959166  0.49809806    -0.28600
C373        C  0.41812199  0.04689562  0.49836645    -0.02900
C374        C  0.38264718  0.04955628  0.49031546    -0.39400
H375        H  0.49170822  0.04372664  0.49671383     0.13400
H376        H  0.52994767  0.98787045  0.49738333     0.13000
H377        H  0.43509977  0.91825966  0.48403955     0.12400
H378        H  0.39701272  0.97357297  0.48378511     0.12700
H379        H  0.48887987  0.89125758  0.51242490     0.15400
H380        H  0.55894288  0.93188363  0.48518864     0.14200
H381        H  0.42980624  0.06800250  0.51591666     0.11900
H382        H  0.37079117  0.02846043  0.47292233     0.13900
C383        C  0.48028239  0.69583412  0.48460109     0.20000
C384        C  0.46251777  0.71860982  0.51133059    -0.18100
C385        C  0.47100027  0.75688391  0.51342354    -0.10400
C386        C  0.49780192  0.77327596  0.48886813     0.22200
C387        C  0.51328124  0.75123544  0.46018181    -0.19700
C388        C  0.50468628  0.71301655  0.45797329    -0.10600
C389        C  0.51362255  0.81134630  0.49466690    -0.14700
C390        C  0.51335036  0.82750451  0.52848339    -0.28600
C391        C  0.47333613  0.65444180  0.48648864     0.02300
C392        C  0.49415018  0.62883711  0.46839104    -0.39400
H393        H  0.44288260  0.70647902  0.53160396     0.13400
H394        H  0.45720777  0.77308847  0.53499557     0.13000
H395        H  0.53353436  0.76316606  0.44044211     0.12400
H396        H  0.51792939  0.69720599  0.43580392     0.12700
H397        H  0.53252347  0.82243248  0.47291316     0.15400
H398        H  0.49728227  0.81519851  0.55173132     0.14200
H399        H  0.45118911  0.64446884  0.50527093     0.11900
H400        H  0.51683938  0.63760698  0.44990341     0.13900
C401        C  0.76844341  0.90937475  0.48223491     0.20000
C402        C  0.75642441  0.87202344  0.48318202    -0.18100
C403        C  0.71945151  0.86339212  0.48624504    -0.10400
C404        C  0.69322839  0.89179591  0.48948759     0.22200
C405        C  0.70499400  0.92956701  0.48763132    -0.19700
C406        C  0.74245453  0.93828991  0.48370484    -0.10600
C407        C  0.65500051  0.87936764  0.49831596    -0.14700
C408        C  0.62641660  0.90082171  0.50920073    -0.28600
C409        C  0.80827765  0.91615143  0.48307233    -0.02900
C410        C  0.82645752  0.94419461  0.46457855    -0.39400
H411        H  0.77585043  0.84926134  0.48217003     0.13400
H412        H  0.71142678  0.83405482  0.48764856     0.13000
H413        H  0.68565203  0.95222819  0.49013864     0.12400
H414        H  0.75110655  0.96740634  0.48351516     0.12700
H415        H  0.65085450  0.84907243  0.49999305     0.15400
H416        H  0.62745713  0.93122609  0.50750857     0.14200
H417        H  0.82379690  0.89487179  0.49747053     0.11900
H418        H  0.81186039  0.96430922  0.44779022     0.13900
C419        C  0.45299883  0.03152788  0.96829182     0.20000
C420        C  0.49096582  0.03426600  0.97094678    -0.18100
C421        C  0.51269571  0.00204089  0.97132097    -0.10400
C422        C  0.49685150  0.96611855  0.96884763     0.22200
C423        C  0.45870729  0.96334078  0.96855812    -0.19700
C424        C  0.43700530  0.99550896  0.96826796    -0.10600
C425        C  0.51862318  0.93182697  0.96010045    -0.14700
C426        C  0.55512597  0.92884111  0.96234030    -0.28600
C427        C  0.43216997  0.06626105  0.95953578    -0.02900
C428        C  0.39548685  0.06879018  0.96173035    -0.39400
H429        H  0.50411063  0.06158257  0.97070946     0.13400
H430        H  0.54189488  0.00577137  0.97098615     0.13000
H431        H  0.44568270  0.93614056  0.96633683     0.12400
H432        H  0.40807072  0.99180180  0.96540719     0.12700
H433        H  0.50392202  0.90944708  0.94702926     0.15400
H434        H  0.57023367  0.95098600  0.97532374     0.14200
H435        H  0.44786415  0.08941112  0.94691681     0.11900
H436        H  0.37956529  0.04574841  0.97416370     0.13900
C437        C  0.52871812  0.78515387  0.97982803     0.20000
C438        C  0.55209161  0.75875471  0.99555083    -0.18100
C439        C  0.54173299  0.72103798  0.99953889    -0.10400
C440        C  0.50741683  0.70904052  0.98847298     0.22200
C441        C  0.48320689  0.73572709  0.97466065    -0.19700
C442        C  0.49385300  0.77343235  0.96996907    -0.10600
C443        C  0.49628798  0.66893829  0.99147210    -0.14700
C444        C  0.51969698  0.64087416  0.98381929    -0.28600
C445        C  0.54292875  0.82374278  0.97190012    -0.02900
C446        C  0.53444902  0.84382894  0.94130434    -0.39400
H447        H  0.57901635  0.76709091  0.00357340     0.13400
H448        H  0.56057977  0.70127939  0.01127344     0.13000
H449        H  0.45639826  0.72716704  0.96650528     0.12400
H450        H  0.47493178  0.79322731  0.95845988     0.12700
H451        H  0.46775712  0.66245365  0.99787940     0.15400
H452        H  0.54749390  0.64741531  0.97424628     0.14200
H453        H  0.56648276  0.83256038  0.98706337     0.11900
H454        H  0.51380312  0.83352385  0.92316511     0.13900
C455        C  0.70561036  0.92912002  0.96128470     0.20000
C456        C  0.73443476  0.90525844  0.96990078    -0.18100
C457        C  0.76938210  0.91942261  0.97404058    -0.10400
C458        C  0.77661091  0.95802540  0.96962080     0.22200
C459        C  0.74748857  0.98241574  0.96327947    -0.19700
C460        C  0.71221188  0.96809538  0.95878793    -0.10600
C461        C  0.81452723  0.97262567  0.97130224    -0.14700
C462        C  0.84291822  0.95289097  0.95709914    -0.28600
C463        C  0.67091883  0.91095274  0.95126165    -0.02900
C464        C  0.63921356  0.92793933  0.94402112    -0.39400
H465        H  0.73018475  0.87516354  0.97232793     0.13400
H466        H  0.79087653  0.89996544  0.98033901     0.13000
H467        H  0.75233396  0.01236231  0.96029399     0.12400
H468        H  0.69074681  0.98735879  0.95204295     0.12700
H469        H  0.81904046  0.99991095  0.98350817     0.15400
H470        H  0.83772145  0.92700215  0.94248647     0.14200
H471        H  0.67213582  0.88066879  0.94782607     0.11900
H472        H  0.63487708  0.95751297  0.94922937     0.13900
C473        C  0.99705746  0.47506973  0.47645256     0.20000
C474        C  0.96427100  0.46616526  0.49639810    -0.18100
C475        C  0.94243845  0.43603983  0.48599600    -0.10400
C476        C  0.95263172  0.41416122  0.45482248     0.22200
C477        C  0.98551888  0.42306868  0.43492023    -0.19700
C478        C  0.00746527  0.45312637  0.44547613    -0.10600
C479        C  0.92958678  0.38288763  0.44102208    -0.14700
C480        C  0.89502371  0.37508734  0.45324420    -0.28600
C481        C  0.01907765  0.50749430  0.48908632    -0.02900
C482        C  0.05495582  0.51301189  0.48089235    -0.39400
H483        H  0.95555658  0.48249610  0.52044885     0.13400
H484        H  0.91776908  0.43030025  0.50263468     0.13000
H485        H  0.99409219  0.40697919  0.41066161     0.12400
H486        H  0.03211536  0.45936417  0.42889326     0.12700
H487        H  0.94057923  0.36747881  0.41715408     0.15400
H488        H  0.88217045  0.39153940  0.47523265     0.14200
H489        H  0.00568748  0.52614078  0.50902181     0.11900
H490        H  0.06996847  0.49290287  0.46393185     0.13900
C491        C  0.95389801  0.15357421  0.41965872     0.20000
C492        C  0.95047651  0.17873114  0.44963492    -0.18100
C493        C  0.94314521  0.21685489  0.44290910    -0.10400
C494        C  0.93923411  0.23049699  0.40605227     0.22200
C495        C  0.94486868  0.20563738  0.37627208    -0.19700
C496        C  0.95184478  0.16772356  0.38298184    -0.10600
C497        C  0.92358898  0.26791710  0.39707867    -0.14700
C498        C  0.91252507  0.29373919  0.42225225    -0.28600
C499        C  0.95617551  0.11213812  0.42508495    -0.02900
C500        C  0.96720093  0.09477998  0.45633313    -0.39400
H501        H  0.95137837  0.16883870  0.47835727     0.13400
H502        H  0.93874281  0.23482797  0.46673550     0.13000
H503        H  0.94189151  0.21512642  0.34759859     0.12400
H504        H  0.95440049  0.14908013  0.35935448     0.12700
H505        H  0.91568933  0.27205915  0.36831834     0.15400
H506        H  0.92127427  0.29274075  0.45083050     0.14200
H507        H  0.94861806  0.09496976  0.40171306     0.11900
H508        H  0.97715238  0.11098638  0.47927169     0.13900
C509        C  0.75141130  0.41677929  0.44070970     0.20000
C510        C  0.72743971  0.43504100  0.41709467    -0.18100
C511        C  0.69278086  0.44554819  0.43027761    -0.10400
C512        C  0.68111121  0.43826362  0.46779107     0.22200
C513        C  0.70551088  0.42094250  0.49180402    -0.19700
C514        C  0.74038430  0.41037697  0.47851210    -0.10600
C515        C  0.64288788  0.44542447  0.48158316    -0.14700
C516        C  0.62081728  0.46954735  0.46427008    -0.28600
C517        C  0.78442214  0.39944160  0.42309028    -0.02900
C518        C  0.81288217  0.38598394  0.44153370    -0.39400
H519        H  0.73493218  0.43966218  0.38770140     0.13400
H520        H  0.67478905  0.45753485  0.41022999     0.13000
H521        H  0.69716839  0.41455795  0.52066757     0.12400
H522        H  0.75769543  0.39544283  0.49734352     0.12700
H523        H  0.63234249  0.42956055  0.50596966     0.15400
H524        H  0.63138360  0.48668655  0.44086985     0.14200
H525        H  0.78384256  0.39480227  0.39310775     0.11900
H526        H  0.81606357  0.39222845  0.47082998     0.13900
C527        C  0.95764022  0.45013197  0.98686057     0.20000
C528        C  0.98903387  0.46249869  0.00440741    -0.18100
C529        C  0.01032884  0.49234861  0.98927677    -0.10400
C530        C  0.00086143  0.51048561  0.95585462     0.22200
C531        C  0.96955434  0.49800464  0.93824658    -0.19700
C532        C  0.94828350  0.46818029  0.95335962    -0.10600
C533        C  0.02218835  0.54256475  0.93824741    -0.14700
C534        C  0.05652898  0.55279709  0.94616882    -0.28600
C535        C  0.93584269  0.41844177  0.00460943    -0.02900
C536        C  0.90100204  0.40970247  0.99725357    -0.39400
H537        H  0.99696530  0.44922299  0.03028185     0.13400
H538        H  0.03379152  0.50127273  0.00413732     0.13000
H539        H  0.96157307  0.51127755  0.91238740     0.12400
H540        H  0.92486314  0.45925292  0.93843415     0.12700
H541        H  0.00955322  0.55719495  0.91533896     0.15400
H542        H  0.07129998  0.53693891  0.96666799     0.14200
H543        H  0.94834476  0.40320731  0.02722354     0.11900
H544        H  0.88656684  0.42640019  0.97713900     0.13900
C545        C  0.93547491  0.26781260  0.99579012     0.20000
C546        C  0.94289494  0.25053000  0.96125277    -0.18100
C547        C  0.94863695  0.21163671  0.95947995    -0.10400
C548        C  0.94631992  0.18908755  0.99229443     0.22200
C549        C  0.93925547  0.20646889  0.02677573    -0.19700
C550        C  0.93413521  0.24528808  0.02860480    -0.10600
C551        C  0.94860524  0.14729414  0.99158971    -0.14700
C552        C  0.96765328  0.12833338  0.96509213    -0.28600
C553        C  0.92282029  0.30751595  0.99664354    -0.02900
C554        C  0.92521990  0.32900771  0.02711943    -0.39400
H555        H  0.94312954  0.26700167  0.93548462     0.13400
H556        H  0.95314502  0.19916808  0.93227121     0.13000
H557        H  0.93689890  0.18979473  0.05241200     0.12400
H558        H  0.92702141  0.25716989  0.05560867     0.12700
H559        H  0.93529876  0.13161275  0.01472993     0.15400
H560        H  0.98327852  0.14365601  0.94329346     0.14200
H561        H  0.90503228  0.31638995  0.97466983     0.11900
H562        H  0.94260178  0.31988324  0.04928244     0.13900
C563        C  0.74960753  0.41671835  0.00279030     0.20000
C564        C  0.71863357  0.39516010  0.99564893    -0.18100
C565        C  0.68508854  0.41205545  0.99060435    -0.10400
C566        C  0.68141450  0.45117743  0.99277616     0.22200
C567        C  0.71265933  0.47316052  0.99805645    -0.19700
C568        C  0.74653026  0.45608872  0.00335839    -0.10600
C569        C  0.64509963  0.46897968  0.98950149    -0.14700
C570        C  0.61444294  0.45195896  0.00342855    -0.28600
C571        C  0.78279020  0.39600727  0.01324612    -0.02900
C572        C  0.81681017  0.40995759  0.01615553    -0.39400
H573        H  0.72015831  0.36480581  0.99480549     0.13400
H574        H  0.66194476  0.39431850  0.98518978     0.13000
H575        H  0.71057808  0.50343398  0.99939641     0.12400
H576        H  0.76971451  0.47357387  0.00914852     0.12700
H577        H  0.64365679  0.49662364  0.97636567     0.15400
H578        H  0.61645388  0.42565827  0.01901443     0.14200
H579        H  0.77847463  0.36634258  0.01976644     0.11900
H580        H  0.82374296  0.43843859  0.00718172     0.13900
loop_ 
_geom_bond_atom_site_label_1 
_geom_bond_atom_site_label_2 
_geom_bond_distance 
_geom_bond_site_symmetry_2 
_ccdc_geom_bond_type 
N1            C5   1.362       .  A
N1            C2   1.361       .  A
N1          C536   1.449   1_554  S
C2            C3   1.387       .  A
C2          C572   1.491       .  S
C3            C4   1.368       .  A
C3            H6   1.082       .  S
C4            C5   1.378       .  A
C4            H7   1.083       .  S
C5          C554   1.476       .  S
N8           C12   1.361       .  A
N8            C9   1.358       .  A
N8          C480   1.446       .  S
C9           C10   1.383       .  A
C9          C518   1.486       .  S
C10          C11   1.369       .  A
C10          H13   1.082       .  S
C11          C12   1.386       .  A
C11          H14   1.082       .  S
C12         C498   1.487       .  S
N15          C19   1.362       .  A
N15          C16   1.358       .  A
N15         C426   1.450       .  S
C16          C17   1.384       .  A
C16         C464   1.486       .  S
C17          C18   1.369       .  A
C17          H20   1.082       .  S
C18          C19   1.380       .  A
C18          H21   1.083       .  S
C19         C446   1.476       .  S
N22          C26   1.361       .  A
N22          C23   1.365       .  A
N22         C372   1.453       .  S
C23          C24   1.379       .  A
C23         C390   1.478       .  S
C24          C25   1.367       .  A
C24          H27   1.083       .  S
C25          C26   1.384       .  A
C25          H28   1.083       .  S
C26         C408   1.487       .  S
O29          C45   1.274       .  A
O29         Zn35   2.016       .  S
C30         C336   1.476       .  S
C30          O46   1.277       .  A
C30          O43   1.272   1_665  A
O31          C44   1.275   1_455  A
O31         Cd38   2.075   1_556  S
O32          C50   1.275   1_545  A
O32         Cd41   2.069       .  S
O33          C47   1.278       .  A
O33         Cd37   2.095       .  S
O34          C45   1.277       .  A
O34         Cd37   2.093   1_565  S
Zn35         O46   2.040       .  S
Zn35         O48   2.043       .  S
Zn35         O40   1.955       .  S
O36          C47   1.274       .  A
O36         Cd41   2.074   1_655  S
Cd37         O39   2.080   1_546  S
Cd37         O40   2.015   1_545  S
Cd38         O42   2.070   1_455  S
Cd38         O51   2.083   1_554  S
Cd38         O40   2.007   1_454  S
O39          C49   1.276       .  A
O40         Cd41   1.995   1_665  S
Cd41         O43   2.055       .  S
O42          C49   1.276       .  A
C44         C320   1.483   1_655  S
C44          O48   1.277       .  A
C45         C462   1.477       .  S
C47         C552   1.483       .  S
C49         C356   1.478       .  S
C50         C300   1.480       .  S
C50          O51   1.275       .  A
O52          C68   1.273       .  A
O52         Zn58   2.014       .  S
C53         C338   1.476       .  S
C53          O69   1.273       .  A
C53          O66   1.276       .  A
O54          C67   1.276       .  A
O54         Cd61   2.097       .  S
O55          C73   1.275       .  A
O55         Cd64   2.079   1_545  S
O56          C70   1.276       .  A
O56         Cd60   2.090       .  S
O57          C68   1.276       .  A
O57         Cd60   2.087   1_655  S
Zn58         O69   2.013       .  S
Zn58         O71   2.014       .  S
Zn58         O63   1.939       .  S
O59          C70   1.276       .  A
O59         Cd64   2.073   1_455  S
Cd60         O62   2.078       .  S
Cd60         O63   2.013   1_455  S
Cd61         O65   2.079       .  S
Cd61         O74   2.077   1_565  S
Cd61         O63   2.009       .  S
O62          C72   1.276   1_455  A
O63         Cd64   2.007       .  S
Cd64         O66   2.078       .  S
O65          C72   1.278       .  A
C67         C410   1.486       .  S
C67          O71   1.275       .  A
C68         C284   1.479       .  S
C70         C264   1.480       .  S
C72         C354   1.480       .  S
C73         C500   1.481       .  S
C73          O74   1.277       .  A
N75          C79   1.361       .  A
N75          C76   1.361       .  A
N75         C534   1.450       .  S
C76          C77   1.386       .  A
C76         C248   1.489       .  S
C77          C78   1.369       .  A
C77          H80   1.082       .  S
C78          C79   1.379       .  A
C78          H81   1.083       .  S
C79         C318   1.477       .  S
N82          C86   1.360       .  A
N82          C83   1.358       .  A
N82         C482   1.447       .  S
C83          C84   1.386       .  A
C83         C230   1.488       .  S
C84          C85   1.369       .  A
C84          H87   1.082       .  S
C85          C86   1.384       .  A
C85          H88   1.082       .  S
C86         C282   1.485       .  S
N89          C93   1.360       .  A
N89          C90   1.358       .  A
N89         C428   1.449       .  S
C90          C91   1.385       .  A
C90         C302   1.486       .  S
C91          C92   1.370       .  A
C91          H94   1.082       .  S
C92          C93   1.381       .  A
C92          H95   1.083       .  S
C93         C212   1.476       .  S
N96         C100   1.362       .  A
N96          C97   1.359       .  A
N96         C374   1.448       .  S
C97          C98   1.382       .  A
C97         C266   1.485       .  S
C98          C99   1.372       .  A
C98         H101   1.082       .  S
C99         C100   1.387       .  A
C99         H102   1.082       .  S
C100        C194   1.489       .  S
O103        C119   1.279       .  A
O103       Zn109   2.046       .  S
C104        C210   1.476       .  S
C104        O120   1.275       .  A
C104        O117   1.275   1_556  A
O105        C118   1.274   1_554  A
O105       Cd112   2.067       .  S
O106        C124   1.277       .  A
O106       Cd115   2.078       .  S
O107        C121   1.275       .  A
O107       Cd111   2.086       .  S
O108        C119   1.274       .  A
O108       Cd111   2.067       .  S
Zn109       O120   2.031       .  S
Zn109       O122   2.051       .  S
Zn109       O114   1.962       .  S
O110        C121   1.274   1_554  A
O110       Cd115   2.072       .  S
Cd111       O113   2.078       .  S
Cd111       O114   2.007       .  S
Cd112       O116   2.075       .  S
Cd112       O125   2.071       .  S
Cd112       O114   1.999   1_554  S
O113        C123   1.275       .  A
O114       Cd115   2.004   1_556  S
Cd115       O117   2.071       .  S
O116        C123   1.275   1_554  A
C118        C246   1.482       .  S
C118        O122   1.278       .  A
C119        C156   1.479       .  S
C121        C570   1.479   1_556  S
C123        C444   1.477       .  S
C124        C174   1.476       .  S
C124        O125   1.275       .  A
O126        C142   1.277       .  A
O126       Zn132   2.047       .  S
C127        C176   1.479       .  S
C127        O143   1.275       .  A
C127        O140   1.275       .  A
O128        C141   1.276       .  A
O128       Cd135   2.079       .  S
O129        C147   1.273       .  A
O129       Cd138   2.059       .  S
O130        C144   1.275       .  A
O130       Cd134   2.080       .  S
O131        C142   1.273       .  A
O131       Cd134   2.060       .  S
Zn132       O143   2.032       .  S
Zn132       O145   2.039       .  S
Zn132       O137   1.966       .  S
O133        C144   1.274       .  A
O133       Cd138   2.075       .  S
Cd134       O136   2.059       .  S
Cd134       O137   1.996       .  S
Cd135       O139   2.097       .  S
Cd135       O148   2.099       .  S
Cd135       O137   2.018       .  S
O136        C146   1.273       .  A
O137       Cd138   1.994       .  S
Cd138       O140   2.065       .  S
O139        C146   1.279       .  A
C141        C192   1.482       .  S
C141        O145   1.277       .  A
C142        C228   1.477       .  S
C144        C392   1.481       .  S
C146        C158   1.478       .  S
C147        C516   1.478       .  S
C147        O148   1.279       .  A
C149        C150   1.403       .  A
C149        C154   1.409       .  A
C149        C157   1.489       .  S
C150        C151   1.401       .  A
C150        H159   1.083       .  S
C151        C152   1.409       .  A
C151        H160   1.082       .  S
C152        C153   1.402       .  A
C152        C155   1.489       .  S
C153        C154   1.398       .  A
C153        H161   1.083       .  S
C154        H162   1.082       .  S
C155        H163   1.087       .  S
C155        C156   1.345       .  D
C156        H164   1.086       .  S
C157        H165   1.087       .  S
C157        C158   1.345       .  D
C158        H166   1.086       .  S
C167        C168   1.403       .  A
C167        C172   1.408       .  A
C167        C175   1.486       .  S
C168        C169   1.396       .  A
C168        H177   1.084       .  S
C169        C170   1.406       .  A
C169        H178   1.082       .  S
C170        C171   1.404       .  A
C170        C173   1.486       .  S
C171        C172   1.401       .  A
C171        H179   1.083       .  S
C172        H180   1.081       .  S
C173        H181   1.087       .  S
C173        C174   1.346       .  D
C174        H182   1.086       .  S
C175        H183   1.087       .  S
C175        C176   1.347       .  D
C176        H184   1.085       .  S
C185        C186   1.405       .  A
C185        C190   1.408       .  A
C185        C193   1.490       .  S
C186        C187   1.399       .  A
C186        H195   1.084       .  S
C187        C188   1.407       .  A
C187        H196   1.081       .  S
C188        C189   1.406       .  A
C188        C191   1.493       .  S
C189        C190   1.403       .  A
C189        H197   1.083       .  S
C190        H198   1.081       .  S
C191        H199   1.087       .  S
C191        C192   1.348       .  D
C192        H200   1.085       .  S
C193        H201   1.087       .  S
C193        C194   1.350       .  D
C194        H202   1.085       .  S
C203        C204   1.404       .  A
C203        C208   1.407       .  A
C203        C211   1.486       .  S
C204        C205   1.396       .  A
C204        H213   1.084       .  S
C205        C206   1.403       .  A
C205        H214   1.083   1_556  S
C206        C207   1.405       .  A
C206        C209   1.484       .  S
C207        C208   1.403       .  A
C207        H215   1.083       .  S
C208        H216   1.082       .  S
C209        H217   1.087   1_556  S
C209        C210   1.347       .  D
C210        H218   1.087       .  S
C211        H219   1.089       .  S
C211        C212   1.346       .  D
C212        H220   1.084       .  S
C221        C222   1.404       .  A
C221        C226   1.410       .  A
C221        C229   1.490       .  S
C222        C223   1.394       .  A
C222        H231   1.084       .  S
C223        C224   1.404       .  A
C223        H232   1.083       .  S
C224        C225   1.405       .  A
C224        C227   1.488       .  S
C225        C226   1.406       .  A
C225        H233   1.083       .  S
C226        H234   1.081       .  S
C227        H235   1.086       .  S
C227        C228   1.347       .  D
C228        H236   1.087       .  S
C229        H237   1.087       .  S
C229        C230   1.349       .  D
C230        H238   1.083       .  S
C239        C240   1.404       .  A
C239        C244   1.406       .  A
C239        C247   1.487       .  S
C240        C241   1.396       .  A
C240        H249   1.084       .  S
C241        C242   1.407       .  A
C241        H250   1.081       .  S
C242        C243   1.409       .  A
C242        C245   1.496       .  S
C243        C244   1.407       .  A
C243        H251   1.083       .  S
C244        H252   1.082       .  S
C245        H253   1.087       .  S
C245        C246   1.349       .  D
C246        H254   1.084       .  S
C247        H255   1.088       .  S
C247        C248   1.352       .  D
C248        H256   1.085       .  S
C257        C258   1.405   1_545  A
C257        C262   1.406       .  A
C257        C265   1.485       .  S
C258        C259   1.403       .  A
C258        H267   1.083       .  S
C259        C260   1.405       .  A
C259        H268   1.083       .  S
C260        C261   1.402   1_565  A
C260        C263   1.481       .  S
C261        C262   1.398       .  A
C261        H269   1.083       .  S
C262        H270   1.083       .  S
C263        H271   1.087   1_565  S
C263        C264   1.344       .  D
C264        H272   1.086       .  S
C265        H273   1.087       .  S
C265        C266   1.347       .  D
C266        H274   1.086       .  S
C275        C276   1.406   1_655  A
C275        C280   1.409       .  A
C275        C283   1.493       .  S
C276        C277   1.403       .  A
C276        H285   1.083       .  S
C277        C278   1.408       .  A
C277        H286   1.082       .  S
C278        C279   1.402   1_455  A
C278        C281   1.486       .  S
C279        C280   1.396       .  A
C279        H287   1.084       .  S
C280        H288   1.080       .  S
C281        H289   1.088       .  S
C281        C282   1.347       .  D
C282        H290   1.085       .  S
C283        H291   1.087   1_655  S
C283        C284   1.347       .  D
C284        H292   1.084       .  S
C293        C294   1.403       .  A
C293        C298   1.409       .  A
C293        C301   1.486       .  S
C294        C295   1.395       .  A
C294        H303   1.084       .  S
C295        C296   1.402       .  A
C295        H304   1.084       .  S
C296        C297   1.408       .  A
C296        C299   1.485       .  S
C297        C298   1.404       .  A
C297        H305   1.082       .  S
C298        H306   1.082       .  S
C299        H307   1.088       .  S
C299        C300   1.345   1_545  D
C300        H308   1.086       .  S
C301        H309   1.087       .  S
C301        C302   1.347       .  D
C302        H310   1.084       .  S
C311        C312   1.404       .  A
C311        C316   1.408   1_655  A
C311        C319   1.494       .  S
C312        C313   1.401       .  A
C312        H321   1.083       .  S
C313        C314   1.410   1_655  A
C313        H322   1.080       .  S
C314        C315   1.406       .  A
C314        C317   1.495       .  S
C315        C316   1.401       .  A
C315        H323   1.083   1_556  S
C316        H324   1.081   1_556  S
C317        H325   1.088       .  S
C317        C318   1.348       .  D
C318        H326   1.082       .  S
C319        H327   1.087       .  S
C319        C320   1.349   1_655  D
C320        H328   1.084       .  S
C329        C330   1.403   1_655  A
C329        C334   1.409       .  A
C329        C337   1.489       .  S
C330        C331   1.398       .  A
C330        H339   1.083       .  S
C331        C332   1.408   1_455  A
C331        H340   1.081       .  S
C332        C333   1.402       .  A
C332        C335   1.488       .  S
C333        C334   1.399       .  A
C333        H341   1.083       .  S
C334        H342   1.080       .  S
C335        H343   1.087       .  S
C335        C336   1.344       .  D
C336        H344   1.085   1_665  S
C337        H345   1.087       .  S
C337        C338   1.346       .  D
C338        H346   1.084       .  S
C347        C348   1.403   1_655  A
C347        C352   1.407       .  A
C347        C355   1.488       .  S
C348        C349   1.400   1_455  A
C348        H357   1.083       .  S
C349        C350   1.409       .  A
C349        H358   1.080   1_655  S
C350        C351   1.404       .  A
C350        C353   1.491       .  S
C351        C352   1.398       .  A
C351        H359   1.083   1_565  S
C352        H360   1.081   1_565  S
C353        H361   1.087       .  S
C353        C354   1.348       .  D
C354        H362   1.083   1_655  S
C355        H363   1.087   1_655  S
C355        C356   1.348       .  D
C356        H364   1.085       .  S
C365        C366   1.407       .  A
C365        C370   1.408   1_545  A
C365        C373   1.495       .  S
C366        C367   1.405   1_545  A
C366        H375   1.083       .  S
C367        C368   1.407       .  A
C367        H376   1.082       .  S
C368        C369   1.405       .  A
C368        C371   1.492       .  S
C369        C370   1.399       .  A
C369        H377   1.084       .  S
C370        H378   1.081       .  S
C371        H379   1.081       .  S
C371        C372   1.353       .  D
C372        H380   1.085       .  S
C373        H381   1.085       .  S
C373        C374   1.351       .  D
C374        H382   1.084       .  S
C383        C384   1.405       .  A
C383        C388   1.409       .  A
C383        C391   1.495       .  S
C384        C385   1.400       .  A
C384        H393   1.083       .  S
C385        C386   1.408       .  A
C385        H394   1.081       .  S
C386        C387   1.404       .  A
C386        C389   1.493       .  S
C387        C388   1.400       .  A
C387        H395   1.083       .  S
C388        H396   1.080       .  S
C389        H397   1.088       .  S
C389        C390   1.346       .  D
C390        H398   1.083       .  S
C391        H399   1.087       .  S
C391        C392   1.349       .  D
C392        H400   1.083       .  S
C401        C402   1.399       .  A
C401        C406   1.409       .  A
C401        C409   1.485       .  S
C402        C403   1.391       .  A
C402        H411   1.084       .  S
C403        C404   1.405       .  A
C403        H412   1.084       .  S
C404        C405   1.410       .  A
C404        C407   1.490       .  S
C405        C406   1.411       .  A
C405        H413   1.081       .  S
C406        H414   1.083       .  S
C407        H415   1.089       .  S
C407        C408   1.351       .  D
C408        H416   1.084       .  S
C409        H417   1.087       .  S
C409        C410   1.347       .  D
C410        H418   1.086       .  S
C419        C420   1.406       .  A
C419        C424   1.408   1_545  A
C419        C427   1.495       .  S
C420        C421   1.403       .  A
C420        H429   1.083       .  S
C421        C422   1.408   1_545  A
C421        H430   1.081       .  S
C422        C423   1.406       .  A
C422        C425   1.494       .  S
C423        C424   1.400       .  A
C423        H431   1.084       .  S
C424        H432   1.081       .  S
C425        H433   1.083       .  S
C425        C426   1.353       .  D
C426        H434   1.084       .  S
C427        H435   1.084       .  S
C427        C428   1.351       .  D
C428        H436   1.083       .  S
C437        C438   1.404       .  A
C437        C442   1.407       .  A
C437        C445   1.486       .  S
C438        C439   1.397       .  A
C438        H447   1.083   1_556  S
C439        C440   1.404       .  A
C439        H448   1.083   1_556  S
C440        C441   1.404       .  A
C440        C443   1.484       .  S
C441        C442   1.402       .  A
C441        H449   1.083       .  S
C442        H450   1.082       .  S
C443        H451   1.087       .  S
C443        C444   1.347       .  D
C444        H452   1.086       .  S
C445        H453   1.088       .  S
C445        C446   1.345       .  D
C446        H454   1.085       .  S
C455        C456   1.404       .  A
C455        C460   1.408       .  A
C455        C463   1.487       .  S
C456        C457   1.392       .  A
C456        H465   1.084       .  S
C457        C458   1.404       .  A
C457        H466   1.083       .  S
C458        C459   1.407       .  A
C458        C461   1.489       .  S
C459        C460   1.407       .  A
C459        H467   1.083   1_565  S
C460        H468   1.081       .  S
C461        H469   1.086       .  S
C461        C462   1.348       .  D
C462        H470   1.087       .  S
C463        H471   1.088       .  S
C463        C464   1.350       .  D
C464        H472   1.084       .  S
C473        C474   1.406       .  A
C473        C478   1.406   1_655  A
C473        C481   1.493   1_655  S
C474        C475   1.401       .  A
C474        H483   1.083       .  S
C475        C476   1.408       .  A
C475        H484   1.080       .  S
C476        C477   1.408       .  A
C476        C479   1.498       .  S
C477        C478   1.403   1_655  A
C477        H485   1.083       .  S
C478        H486   1.081       .  S
C479        H487   1.086       .  S
C479        C480   1.352       .  D
C480        H488   1.082       .  S
C481        H489   1.086       .  S
C481        C482   1.352       .  D
C482        H490   1.084       .  S
C491        C492   1.409       .  A
C491        C496   1.401       .  A
C491        C499   1.489       .  S
C492        C493   1.405       .  A
C492        H501   1.081       .  S
C493        C494   1.409       .  A
C493        H502   1.080       .  S
C494        C495   1.404       .  A
C494        C497   1.490       .  S
C495        C496   1.395       .  A
C495        H503   1.084       .  S
C496        H504   1.084       .  S
C497        H505   1.088       .  S
C497        C498   1.349       .  D
C498        H506   1.084       .  S
C499        H507   1.087       .  S
C499        C500   1.346       .  D
C500        H508   1.085       .  S
C509        C510   1.402       .  A
C509        C514   1.408       .  A
C509        C517   1.486       .  S
C510        C511   1.395       .  A
C510        H519   1.084       .  S
C511        C512   1.409       .  A
C511        H520   1.080       .  S
C512        C513   1.406       .  A
C512        C515   1.494       .  S
C513        C514   1.404       .  A
C513        H521   1.083       .  S
C514        H522   1.082       .  S
C515        H523   1.087       .  S
C515        C516   1.347       .  D
C516        H524   1.084       .  S
C517        H525   1.087       .  S
C517        C518   1.347       .  D
C518        H526   1.084       .  S
C527        C528   1.409   1_556  A
C527        C532   1.406       .  A
C527        C535   1.497   1_556  S
C528        C529   1.404   1_654  A
C528        H537   1.083       .  S
C529        C530   1.406       .  A
C529        H538   1.081   1_556  S
C530        C531   1.408   1_455  A
C530        C533   1.496       .  S
C531        C532   1.402       .  A
C531        H539   1.083       .  S
C532        H540   1.081       .  S
C533        H541   1.086       .  S
C533        C534   1.355       .  D
C534        H542   1.084       .  S
C535        H543   1.086       .  S
C535        C536   1.354   1_554  D
C536        H544   1.084       .  S
C545        C546   1.405       .  A
C545        C550   1.409   1_556  A
C545        C553   1.492       .  S
C546        C547   1.404       .  A
C546        H555   1.083       .  S
C547        C548   1.409       .  A
C547        H556   1.082       .  S
C548        C549   1.403   1_556  A
C548        C551   1.492       .  S
C549        C550   1.399       .  A
C549        H557   1.083       .  S
C550        H558   1.082       .  S
C551        H559   1.087   1_556  S
C551        C552   1.346       .  D
C552        H560   1.086       .  S
C553        H561   1.087       .  S
C553        C554   1.347   1_556  D
C554        H562   1.086       .  S
C563        C564   1.404   1_554  A
C563        C568   1.408       .  A
C563        C571   1.488       .  S
C564        C565   1.393       .  A
C564        H573   1.084       .  S
C565        C566   1.404       .  A
C565        H574   1.083       .  S
C566        C567   1.407       .  A
C566        C569   1.490       .  S
C567        C568   1.408   1_556  A
C567        H575   1.083       .  S
C568        H576   1.082       .  S
C569        H577   1.086       .  S
C569        C570   1.349   1_556  D
C570        H578   1.086       .  S
C571        H579   1.087       .  S
C571        C572   1.352       .  D
C572        H580   1.084       .  S
