geometry optimzed in LAMMPS
_audit_creation_date              2020-11-30 
_audit_creation_method            'lammps2cif' 
_symmetry_space_group_name_H-M    'P1' 
_symmetry_Int_Tables_number       1 
_symmetry_cell_setting            triclinic 
loop_ 
_symmetry_equiv_pos_as_xyz 
  x,y,z 
_cell_length_a                    29.10671469 
_cell_length_b                    29.251428105486642 
_cell_length_c                    24.07259856613981 
_cell_angle_alpha                 88.81733452472379 
_cell_angle_beta                  92.0857311097193 
_cell_angle_gamma                 88.3668198717658 
loop_ 
_atom_site_label 
_atom_site_type_symbol 
_atom_site_fract_x 
_atom_site_fract_y 
_atom_site_fract_z 
_atom_site_charge 
C1          C  0.09276989  0.99630397  0.49756296    -0.02600
O2          O  0.35231721  0.46243640  0.20388155    -0.71900
O3          O  0.26063755  0.46541802  0.31117488    -0.72100
O4          O  0.25976803  0.46154941  0.19959789    -0.72000
O5          O  0.35264582  0.46723232  0.31475326    -0.72000
O6          O  0.34475907  0.04142409  0.31297489    -0.72000
O7          O  0.26107060  0.03532480  0.18915460    -0.72000
O8          O  0.25277039  0.03916811  0.30022137    -0.71900
O9          O  0.35362620  0.03658553  0.20250507    -0.72100
V10         V  0.30621910  0.46555948  0.25717773     1.35200
V11         V  0.30306587  0.03678123  0.25122978     1.35200
C12         C  0.36963634  0.49867973  0.18590779     0.77300
C13         C  0.24090753  0.50250181  0.32394112     0.77400
C14         C  0.24510638  0.49766339  0.17399374     0.77200
C15         C  0.36391605  0.50549414  0.33373337     0.77200
C16         C  0.51203831  0.00230129  0.51016309    -0.02600
C17         C  0.05467891  0.04116887  0.00369096    -0.02600
O18         O  0.08914693  0.29336821  0.18910614    -0.71900
O19         O  0.09524292  0.20318773  0.30577367    -0.72100
O20         O  0.09347478  0.20253187  0.19563805    -0.72000
O21         O  0.09096061  0.29644418  0.30094470    -0.72000
O22         O  0.01662443  0.29598475  0.29866412    -0.72000
O23         O  0.01897905  0.20052510  0.19383450    -0.72000
O24         O  0.02088364  0.20288506  0.30417715    -0.71900
O25         O  0.01477959  0.29173409  0.18691886    -0.72100
V26         V  0.09076272  0.24908676  0.24811236     1.35200
V27         V  0.01922520  0.24799387  0.24630546     1.35200
C28         C  0.05095462  0.30651236  0.16641686     0.77300
C29         C  0.05894676  0.18554989  0.32267024     0.77400
C30         C  0.05696957  0.18511384  0.17739579     0.77200
C31         C  0.05343061  0.31330799  0.31714112     0.77200
C32         C  0.05005767  0.45731018  0.49510054    -0.02600
C33         C  0.01031670  0.36574897  0.37803570    -0.20400
C34         C  0.05211239  0.35223273  0.35681908    -0.07000
C35         C  0.09086324  0.37594423  0.37454251     0.13900
C36         C  0.08660121  0.40961210  0.41501880    -0.20500
C37         C  0.04509935  0.42676807  0.43805855    -0.07000
C38         C  0.00532622  0.40137046  0.41661411     0.13800
C39         C  0.45518112  0.40642781  0.42902795    -0.23800
H40         H  0.48016673  0.34743739  0.36420327     0.15100
H41         H  0.11866899  0.41966777  0.42933879     0.15200
C42         C  0.13801058  0.36561385  0.35252121    -0.23800
H43         H  0.44334884  0.37530507  0.45089795     0.05400
H44         H  0.43412230  0.41088356  0.38970986     0.08600
H45         H  0.44681086  0.43550524  0.45223937     0.08600
H46         H  0.13695370  0.37021888  0.30658348     0.08600
H47         H  0.14945136  0.33013823  0.36447766     0.08600
H48         H  0.16452343  0.38875637  0.36925977     0.05400
C49         C  0.09006862  0.34680247  0.09066488    -0.20400
C50         C  0.04941599  0.33836949  0.11722093    -0.07000
C51         C  0.00899689  0.35881697  0.09337631     0.13900
C52         C  0.01259545  0.39295516  0.05196229    -0.20500
C53         C  0.05376223  0.41358223  0.03745634    -0.07000
C54         C  0.09301307  0.38276290  0.05110210     0.13800
C55         C  0.13969091  0.38536614  0.02917950    -0.23800
H56         H  0.12082034  0.32671797  0.10305938     0.15100
H57         H  0.98306920  0.39993195  0.02720910     0.15200
C58         C  0.46194201  0.34326004  0.10801283    -0.23800
H59         H  0.16655087  0.38480870  0.06323566     0.05400
H60         H  0.14124269  0.41714492  0.00862832     0.08600
H61         H  0.14643505  0.35692078  0.00045622     0.08600
H62         H  0.45533711  0.35100642  0.15199768     0.08600
H63         H  0.95939880  0.30598595  0.10111102     0.08600
H64         H  0.43446125  0.36070885  0.08173227     0.05400
C65         C  0.09519367  0.09209929  0.43173144    -0.20400
C66         C  0.05287017  0.07391219  0.44863056    -0.07000
C67         C  0.01352323  0.09973397  0.42425984     0.13900
C68         C  0.01744969  0.12802946  0.37694481    -0.20500
C69         C  0.05961585  0.14533452  0.36248517    -0.07000
C70         C  0.09947899  0.12625409  0.38995677     0.13800
C71         C  0.14684503  0.14230497  0.37745537    -0.23800
H72         H  0.12606132  0.08204923  0.45390399     0.15100
H73         H  0.48623193  0.14338385  0.35776507     0.15200
C74         C  0.47021398  0.11155234  0.45306460    -0.23800
H75         H  0.17416265  0.12318472  0.40249566     0.05400
H76         H  0.14955265  0.17906882  0.38724781     0.08600
H77         H  0.15367294  0.13691880  0.33295256     0.08600
H78         H  0.47128300  0.09662308  0.49482712     0.08600
H79         H  0.43987884  0.10194640  0.42718187     0.08600
H80         H  0.46655323  0.14907549  0.45869748     0.05400
C81         C  0.02477379  0.14568573  0.09509618    -0.20400
C82         C  0.05911725  0.14834371  0.13700604    -0.07000
C83         C  0.09693051  0.11731453  0.13598992     0.13900
C84         C  0.09594357  0.08298137  0.09595141    -0.20500
C85         C  0.06168619  0.08104885  0.05130554    -0.07000
C86         C  0.03847904  0.12540870  0.04601233     0.13800
C87         C  0.06106314  0.16279897  0.01163057    -0.23800
H88         H  0.99795045  0.17222481  0.09236719     0.15100
H89         H  0.11588613  0.05516700  0.11179818     0.15200
C90         C  0.13506759  0.11600162  0.18065057    -0.23800
H91         H  0.06382923  0.19599913  0.03328145     0.05400
H92         H  0.04099274  0.17169102  0.47281216     0.08600
H93         H  0.09683634  0.15342599  0.50331470     0.08600
H94         H  0.12023142  0.11315763  0.22240235     0.08600
H95         H  0.15557563  0.14727624  0.17766317     0.08600
H96         H  0.15952049  0.08653989  0.17638166     0.05400
C97         C  0.38865271  0.52055264  0.43054745    -0.20400
C98         C  0.40017993  0.50855280  0.37736415    -0.07000
C99         C  0.44646170  0.00340340  0.36514306     0.13900
C100        C  0.47991957  0.00522733  0.40845765    -0.20500
C101        C  0.47075335  0.51244209  0.46424829    -0.07000
C102        C  0.42244794  0.52583883  0.47307898     0.13800
C103        C  0.40320996  0.55225777  0.52121986    -0.23800
H104        H  0.35290652  0.52886286  0.43808227     0.15100
H105        H  0.51362164  0.99773255  0.40024956     0.15200
C106        C  0.45992964  0.99476090  0.30637167    -0.23800
H107        H  0.38649633  0.58473528  0.50503617     0.05400
H108        H  0.42888066  0.06282763  0.05244071     0.06400
H109        H  0.37584601  0.53292710  0.04110875     0.08600
H110        H  0.44739956  0.02398875  0.27943360     0.08600
H111        H  0.44441306  0.46285916  0.29132916     0.08600
H112        H  0.49739014  0.99115462  0.30225135     0.05400
C113        C  0.44469201  0.46631607  0.06624951    -0.20400
C114        C  0.48403310  0.49492880  0.06882826    -0.07000
C115        C  0.48400119  0.02071338  0.11998864     0.13900
C116        C  0.44463502  0.02503138  0.15273445    -0.20500
C117        C  0.40790944  0.49619450  0.14675103    -0.07000
C118        C  0.40911671  0.46459031  0.10419956     0.13800
C119        C  0.36905163  0.43379899  0.09273184    -0.23800
H120        H  0.43543718  0.45001203  0.02961556     0.15100
H121        H  0.44488718  0.04801599  0.18753233     0.15200
C122        C  0.52461071  0.03406583  0.15297699    -0.23800
H123        H  0.37259644  0.41462107  0.05372120     0.05400
H124        H  0.33649599  0.95455269  0.08846322     0.08600
H125        H  0.36672665  0.40821429  0.12710557     0.08600
H126        H  0.05407166  0.02391864  0.13129381     0.08600
H127        H  0.02675790  0.51510166  0.19357465     0.08600
H128        H  0.52245366  0.07081466  0.16197856     0.05400
C129        C  0.17562404  0.47885829  0.45370944    -0.20400
C130        C  0.12863139  0.49626847  0.44313852    -0.07000
C131        C  0.12236359  0.50934747  0.38352819     0.13900
C132        C  0.16075325  0.51766303  0.35028226    -0.20500
C133        C  0.20469499  0.50207850  0.36550080    -0.07000
C134        C  0.21187950  0.48068454  0.41720048     0.13800
C135        C  0.25886252  0.46116332  0.43555085    -0.23800
H136        H  0.18728075  0.96364906  0.49262435     0.15100
H137        H  0.15600314  0.53206044  0.30845345     0.15200
C138        C  0.07915900  0.51025793  0.34728030    -0.23800
H139        H  0.26006644  0.44786202  0.47914472     0.05400
H140        H  0.28461216  0.98820198  0.43269987     0.08600
H141        H  0.26871922  0.43233509  0.40879911     0.08600
H142        H  0.05579994  0.03918090  0.35531605     0.08600
H143        H  0.06435729  0.47608597  0.34767305     0.08600
H144        H  0.08511205  0.51561087  0.30226886     0.05400
C145        C  0.16574079  0.02665325  0.04821015    -0.20400
C146        C  0.12817137  0.49550224  0.05224400    -0.07000
C147        C  0.13099362  0.46875963  0.10467032     0.13900
C148        C  0.17242997  0.46634822  0.13737719    -0.20500
C149        C  0.20801774  0.49625095  0.12987455    -0.07000
C150        C  0.20429706  0.02739730  0.08491477     0.13800
C151        C  0.24156923  0.06092470  0.07380709    -0.23800
H152        H  0.16567500  0.05121109  0.01493223     0.15100
H153        H  0.17465914  0.44449394  0.17450821     0.15200
C154        C  0.09296719  0.44993455  0.13913975    -0.23800
H155        H  0.23499672  0.08031164  0.03401824     0.05400
H156        H  0.27521183  0.54232309  0.07126008     0.08600
H157        H  0.24345573  0.08631449  0.10734284     0.08600
H158        H  0.05808548  0.45338671  0.12112000     0.08600
H159        H  0.09255672  0.96803447  0.17927762     0.08600
H160        H  0.10072371  0.41408706  0.15224850     0.05400
C161        C  0.09279151  0.99630985  0.99754202    -0.02600
O162        O  0.35235727  0.46246342  0.70392933    -0.71900
O163        O  0.26067501  0.46548642  0.81121620    -0.72100
O164        O  0.25979069  0.46159044  0.69964512    -0.72000
O165        O  0.35268260  0.46727669  0.81478666    -0.72000
O166        O  0.34482960  0.04147180  0.81296489    -0.72000
O167        O  0.26109291  0.03536544  0.68918615    -0.72000
O168        O  0.25283944  0.03923930  0.80026104    -0.71900
O169        O  0.35366480  0.03661260  0.70250840    -0.72100
V170        V  0.30625332  0.46560504  0.75721698     1.35200
V171        V  0.30311508  0.03682707  0.75124470     1.35200
C172        C  0.36968313  0.49870087  0.68594480     0.77300
C173        C  0.24096622  0.50257962  0.82398603     0.77400
C174        C  0.24511384  0.49770232  0.67404731     0.77200
C175        C  0.36397548  0.50554153  0.83373566     0.77200
C176        C  0.51206237  0.00231755  0.01017704    -0.02600
C177        C  0.05463362  0.04115921  0.50364952    -0.02600
O178        O  0.08900353  0.29336850  0.68916916    -0.71900
O179        O  0.09508095  0.20307649  0.80566944    -0.72100
O180        O  0.09328600  0.20254172  0.69554109    -0.72000
O181        O  0.09083070  0.29632407  0.80101125    -0.72000
O182        O  0.01649090  0.29594688  0.79867446    -0.72000
O183        O  0.01879588  0.20048955  0.69381725    -0.72000
O184        O  0.02072139  0.20283441  0.80416425    -0.71900
O185        O  0.01463681  0.29170423  0.68691524    -0.72100
V186        V  0.09060441  0.24903032  0.74809520     1.35200
V187        V  0.01906667  0.24795646  0.74629995     1.35200
C188        C  0.05082176  0.30650006  0.66645091     0.77300
C189        C  0.05878787  0.18546482  0.82260156     0.77400
C190        C  0.05678093  0.18510588  0.67732929     0.77200
C191        C  0.05331043  0.31322540  0.81718822     0.77200
C192        C  0.05007247  0.45732418  0.99507135    -0.02600
C193        C  0.01025902  0.36565598  0.87817197    -0.20400
C194        C  0.05202465  0.35215656  0.85686697    -0.07000
C195        C  0.09077599  0.37593429  0.87444770     0.13900
C196        C  0.08655491  0.40963872  0.91489205    -0.20500
C197        C  0.04507880  0.42676896  0.93803102    -0.07000
C198        C  0.00529681  0.40133606  0.91667532     0.13800
C199        C  0.45515153  0.40647049  0.92908467    -0.23800
H200        H  0.48010466  0.34730666  0.86443290     0.15100
H201        H  0.11864164  0.41976604  0.92906211     0.15200
C202        C  0.13788118  0.36565351  0.85227742    -0.23800
H203        H  0.44329004  0.37539372  0.95104571     0.05400
H204        H  0.43410008  0.41084763  0.88974192     0.08600
H205        H  0.44680768  0.43559484  0.95213128     0.08600
H206        H  0.13670981  0.37021022  0.80633215     0.08600
H207        H  0.14940295  0.33020507  0.86425273     0.08600
H208        H  0.16439338  0.38885565  0.86888560     0.05400
C209        C  0.08998798  0.34677645  0.59073852    -0.20400
C210        C  0.04931708  0.33835349  0.61725631    -0.07000
C211        C  0.00891695  0.35879265  0.59336145     0.13900
C212        C  0.01255513  0.39292166  0.55195097    -0.20500
C213        C  0.05372432  0.41356205  0.53749131    -0.07000
C214        C  0.09296841  0.38274071  0.55118872     0.13800
C215        C  0.13968025  0.38536030  0.52937206    -0.23800
H216        H  0.12072951  0.32668728  0.60316676     0.15100
H217        H  0.98303451  0.39989085  0.52715298     0.15200
C218        C  0.46185617  0.34321986  0.60794125    -0.23800
H219        H  0.16649710  0.38475074  0.56348076     0.05400
H220        H  0.14126638  0.41717228  0.50891718     0.08600
H221        H  0.14645786  0.35695708  0.50059901     0.08600
H222        H  0.45520379  0.35098174  0.65190984     0.08600
H223        H  0.95933701  0.30594105  0.60105960     0.08600
H224        H  0.43439583  0.36064152  0.58160621     0.05400
C225        C  0.09515995  0.09206167  0.93163756    -0.20400
C226        C  0.05285925  0.07392298  0.94867741    -0.07000
C227        C  0.01349224  0.09978965  0.92444149     0.13900
C228        C  0.01733028  0.12805700  0.87708813    -0.20500
C229        C  0.05948467  0.14526594  0.86243093    -0.07000
C230        C  0.09939004  0.12614011  0.88976507     0.13800
C231        C  0.14675636  0.14203596  0.87698435    -0.23800
H232        H  0.12606778  0.08201160  0.95373084     0.15100
H233        H  0.48608980  0.14346540  0.85803168     0.15200
C234        C  0.47029220  0.11167679  0.95342941    -0.23800
H235        H  0.17410588  0.12285398  0.90190214     0.05400
H236        H  0.14962145  0.17879584  0.88671527     0.08600
H237        H  0.15340057  0.13658549  0.83244602     0.08600
H238        H  0.47140950  0.09666030  0.99515309     0.08600
H239        H  0.43986554  0.10220650  0.92761929     0.08600
H240        H  0.46677403  0.14919738  0.95916659     0.05400
C241        C  0.02452357  0.14557277  0.59512025    -0.20400
C242        C  0.05893742  0.14833600  0.63693645    -0.07000
C243        C  0.09682892  0.11740552  0.63582678     0.13900
C244        C  0.09587820  0.08308007  0.59578341    -0.20500
C245        C  0.06155867  0.08105524  0.55123496    -0.07000
C246        C  0.03820346  0.12534620  0.54599154     0.13800
C247        C  0.06066000  0.16282842  0.51161028    -0.23800
H248        H  0.99761581  0.17202837  0.59246647     0.15100
H249        H  0.11590786  0.05532437  0.61158213     0.15200
C250        C  0.13502925  0.11616789  0.68040979    -0.23800
H251        H  0.06333790  0.19603260  0.53327124     0.05400
H252        H  0.04142183  0.17168987  0.97281829     0.08600
H253        H  0.09721769  0.15327997  0.00335882     0.08600
H254        H  0.12026000  0.11328184  0.72219495     0.08600
H255        H  0.15546753  0.14748607  0.67738017     0.08600
H256        H  0.15953663  0.08675795  0.67609064     0.05400
C257        C  0.38871133  0.52065657  0.93051862    -0.20400
C258        C  0.40023997  0.50860462  0.87735764    -0.07000
C259        C  0.44651902  0.00341423  0.86514868     0.13900
C260        C  0.47997200  0.00526896  0.90846323    -0.20500
C261        C  0.47079785  0.51250431  0.96425060    -0.07000
C262        C  0.42249410  0.52592331  0.97306407     0.13800
C263        C  0.40322573  0.55230537  0.02122046    -0.23800
H264        H  0.35296817  0.52899633  0.93803183     0.15100
H265        H  0.51367471  0.99775380  0.90026560     0.15200
C266        C  0.45998274  0.99468197  0.80639546    -0.23800
H267        H  0.38653384  0.58480232  0.00506692     0.05400
H268        H  0.42889922  0.06282456  0.55237911     0.06400
H269        H  0.37585829  0.53288711  0.54117570     0.08600
H270        H  0.44746185  0.02387331  0.77939230     0.08600
H271        H  0.44445638  0.46276030  0.79142575     0.08600
H272        H  0.49744081  0.99105412  0.80227738     0.05400
C273        C  0.44473568  0.46631469  0.56633677    -0.20400
C274        C  0.48405102  0.49493461  0.56883722    -0.07000
C275        C  0.48403242  0.02075172  0.61998271     0.13900
C276        C  0.44466692  0.02507709  0.65272918    -0.20500
C277        C  0.40796197  0.49620532  0.64679795    -0.07000
C278        C  0.40918112  0.46456506  0.60428156     0.13800
C279        C  0.36913893  0.43373137  0.59288071    -0.23800
H280        H  0.43546714  0.44998293  0.52964409     0.15100
H281        H  0.44491534  0.04808246  0.68750903     0.15200
C282        C  0.52465419  0.03406839  0.65299811    -0.23800
H283        H  0.37267029  0.41454983  0.55386932     0.05400
H284        H  0.33656142  0.95444932  0.58864003     0.08600
H285        H  0.36686902  0.40815199  0.62726941     0.08600
H286        H  0.05414636  0.02397354  0.63132526     0.08600
H287        H  0.02678470  0.51505990  0.69356419     0.08600
H288        H  0.52249629  0.07079810  0.66209024     0.05400
C289        C  0.17567074  0.47892175  0.95373572    -0.20400
C290        C  0.12866767  0.49629123  0.94313486    -0.07000
C291        C  0.12240584  0.50934947  0.88351528     0.13900
C292        C  0.16079789  0.51767667  0.85027878    -0.20500
C293        C  0.20475381  0.50216823  0.86554223    -0.07000
C294        C  0.21194716  0.48081165  0.91726198     0.13800
C295        C  0.25895692  0.46139198  0.93566338    -0.23800
H296        H  0.18731013  0.96369226  0.99265330     0.15100
H297        H  0.15605025  0.53204385  0.80843532     0.15200
C298        C  0.07919905  0.51028277  0.84726650    -0.23800
H299        H  0.26015975  0.44810810  0.97926459     0.05400
H300        H  0.28464600  0.98848638  0.93282189     0.08600
H301        H  0.26889714  0.43257739  0.90893419     0.08600
H302        H  0.05583649  0.03920030  0.85532516     0.08600
H303        H  0.06439340  0.47611528  0.84764114     0.08600
H304        H  0.08515106  0.51565525  0.80225797     0.05400
C305        C  0.16577739  0.02659580  0.54820037    -0.20400
C306        C  0.12815931  0.49550419  0.55227777    -0.07000
C307        C  0.13094213  0.46883033  0.60476669     0.13900
C308        C  0.17235431  0.46646285  0.63753482    -0.20500
C309        C  0.20799826  0.49628395  0.62995334    -0.07000
C310        C  0.20433626  0.02733742  0.58490374     0.13800
C311        C  0.24168703  0.06075220  0.57369186    -0.23800
H312        H  0.16577080  0.05109522  0.51486749     0.15100
H313        H  0.17454853  0.44467720  0.67472608     0.15200
C314        C  0.09291085  0.44994033  0.63917521    -0.23800
H315        H  0.23515568  0.08007294  0.53384929     0.05400
H316        H  0.27528786  0.54206429  0.57119182     0.08600
H317        H  0.24363929  0.08620218  0.60715447     0.08600
H318        H  0.05803729  0.45339682  0.62113146     0.08600
H319        H  0.09246057  0.96799390  0.67934225     0.08600
H320        H  0.10069398  0.41408988  0.65224598     0.05400
C321        C  0.09276982  0.49630402  0.49756271    -0.02600
O322        O  0.35231721  0.96243625  0.20388167    -0.71900
O323        O  0.26063750  0.96541788  0.31117506    -0.72100
O324        O  0.25976799  0.96154930  0.19959790    -0.72000
O325        O  0.35264589  0.96723191  0.31475339    -0.72000
O326        O  0.34475884  0.54142452  0.31297446    -0.72000
O327        O  0.26107056  0.53532489  0.18915427    -0.72000
O328        O  0.25277024  0.53916822  0.30022103    -0.71900
O329        O  0.35362603  0.53658569  0.20250478    -0.72100
V330        V  0.30621907  0.96555932  0.25717782     1.35200
V331        V  0.30306573  0.53678139  0.25122942     1.35200
C332        C  0.36963647  0.99867952  0.18590795     0.77300
C333        C  0.24090763  0.00250167  0.32394135     0.77400
C334        C  0.24510640  0.99766373  0.17399376     0.77200
C335        C  0.36391626  0.00549371  0.33373355     0.77200
C336        C  0.51203810  0.50230139  0.51016293    -0.02600
C337        C  0.05467883  0.54116900  0.00369089    -0.02600
O338        O  0.08914721  0.79336809  0.18910612    -0.71900
O339        O  0.09524326  0.70318778  0.30577387    -0.72100
O340        O  0.09347510  0.70253175  0.19563820    -0.72000
O341        O  0.09096094  0.79644429  0.30094469    -0.72000
O342        O  0.01662473  0.79598489  0.29866384    -0.72000
O343        O  0.01897940  0.70052487  0.19383480    -0.72000
O344        O  0.02088397  0.70288538  0.30417728    -0.71900
O345        O  0.01477985  0.79173389  0.18691857    -0.72100
V346        V  0.09076306  0.74908674  0.24811247     1.35200
V347        V  0.01922553  0.74799389  0.24630542     1.35200
C348        C  0.05095496  0.80651215  0.16641665     0.77300
C349        C  0.05894672  0.68555011  0.32267037     0.77400
C350        C  0.05696992  0.68511367  0.17739614     0.77200
C351        C  0.05343093  0.81330812  0.31714099     0.77200
C352        C  0.05005782  0.95731010  0.49510079    -0.02600
C353        C  0.01031705  0.86574885  0.37803590    -0.20400
C354        C  0.05211278  0.85223288  0.35681902    -0.07000
C355        C  0.09086349  0.87594452  0.37454236     0.13900
C356        C  0.08660168  0.90961245  0.41501904    -0.20500
C357        C  0.04509937  0.92676809  0.43805871    -0.07000
C358        C  0.00532646  0.90137031  0.41661435     0.13800
C359        C  0.45518140  0.90642768  0.42902881    -0.23800
H360        H  0.48016692  0.84743687  0.36420387     0.15100
H361        H  0.11866887  0.91966780  0.42933884     0.15200
C362        C  0.13801113  0.86561470  0.35252125    -0.23800
H363        H  0.44334927  0.87530469  0.45089885     0.05400
H364        H  0.43412245  0.91088298  0.38971077     0.08600
H365        H  0.44681191  0.93550471  0.45223925     0.08600
H366        H  0.13695463  0.87021977  0.30658347     0.08600
H367        H  0.14945217  0.83013912  0.36447774     0.08600
H368        H  0.16452369  0.88875742  0.36925990     0.05400
C369        C  0.09006912  0.84680241  0.09066471    -0.20400
C370        C  0.04941621  0.83836937  0.11722060    -0.07000
C371        C  0.00899730  0.85881676  0.09337594     0.13900
C372        C  0.01259469  0.89295532  0.05196113    -0.20500
C373        C  0.05376255  0.91358208  0.03745629    -0.07000
C374        C  0.09301321  0.88276295  0.05110201     0.13800
C375        C  0.13969098  0.88536764  0.02917884    -0.23800
H376        H  0.12082081  0.82671789  0.10305891     0.15100
H377        H  0.98307025  0.89993151  0.02720925     0.15200
C378        C  0.46194199  0.84326039  0.10801157    -0.23800
H379        H  0.16655117  0.88480991  0.06323526     0.05400
H380        H  0.14124203  0.91714552  0.00862894     0.08600
H381        H  0.14643564  0.85692194  0.00045549     0.08600
H382        H  0.45533669  0.85100673  0.15199632     0.08600
H383        H  0.95939896  0.80598632  0.10110960     0.08600
H384        H  0.43446161  0.86070939  0.08173061     0.05400
C385        C  0.09519369  0.59209942  0.43173146    -0.20400
C386        C  0.05286983  0.57391254  0.44863034    -0.07000
C387        C  0.01352309  0.59973418  0.42425966     0.13900
C388        C  0.01744900  0.62803008  0.37694443    -0.20500
C389        C  0.05961593  0.64533480  0.36248532    -0.07000
C390        C  0.09947871  0.62625443  0.38995683     0.13800
C391        C  0.14684499  0.64230559  0.37745620    -0.23800
H392        H  0.12606089  0.58204949  0.45390381     0.15100
H393        H  0.48623201  0.64338413  0.35776475     0.15200
C394        C  0.47021398  0.61155247  0.45306429    -0.23800
H395        H  0.17416268  0.62318548  0.40249659     0.05400
H396        H  0.14955209  0.67906947  0.38724874     0.08600
H397        H  0.15367338  0.63691957  0.33295351     0.08600
H398        H  0.47128307  0.59662296  0.49482678     0.08600
H399        H  0.43987883  0.60194657  0.42718166     0.08600
H400        H  0.46655342  0.64907558  0.45869739     0.05400
C401        C  0.02477382  0.64568588  0.09509635    -0.20400
C402        C  0.05911743  0.64834354  0.13700624    -0.07000
C403        C  0.09693093  0.61731470  0.13598967     0.13900
C404        C  0.09594371  0.58298131  0.09595141    -0.20500
C405        C  0.06168621  0.58104893  0.05130563    -0.07000
C406        C  0.03847934  0.62540894  0.04601238     0.13800
C407        C  0.06106416  0.66279938  0.01163141    -0.23800
H408        H  0.99795061  0.67222497  0.09236738     0.15100
H409        H  0.11588643  0.55516698  0.11179819     0.15200
C410        C  0.13506885  0.61600267  0.18064925    -0.23800
H411        H  0.06383007  0.69599953  0.03328248     0.05400
H412        H  0.04099254  0.67169074  0.47281232     0.08600
H413        H  0.09683634  0.65342567  0.50331505     0.08600
H414        H  0.12023312  0.61315879  0.22240125     0.08600
H415        H  0.15557664  0.64727751  0.17766134     0.08600
H416        H  0.15952185  0.58654100  0.17638030     0.05400
C417        C  0.38865303  0.02055218  0.43054772    -0.20400
C418        C  0.40018044  0.00855227  0.37736425    -0.07000
C419        C  0.44646145  0.50340384  0.36514296     0.13900
C420        C  0.47991796  0.50522786  0.40845786    -0.20500
C421        C  0.47075349  0.01244204  0.46424859    -0.07000
C422        C  0.42244831  0.02583864  0.47307922     0.13800
C423        C  0.40321060  0.05225781  0.52122034    -0.23800
H424        H  0.35290681  0.02886240  0.43808241     0.15100
H425        H  0.51362194  0.49773226  0.40024895     0.15200
C426        C  0.45992877  0.49476169  0.30637156    -0.23800
H427        H  0.38649677  0.08473527  0.50503668     0.05400
H428        H  0.42888081  0.56282793  0.05244075     0.06400
H429        H  0.37584608  0.03292660  0.04110868     0.08600
H430        H  0.44739872  0.52398968  0.27943392     0.08600
H431        H  0.44441401  0.96285822  0.29132923     0.08600
H432        H  0.49738943  0.49115521  0.30225117     0.05400
C433        C  0.44469155  0.96631414  0.06624717    -0.20400
C434        C  0.48403324  0.99492871  0.06882867    -0.07000
C435        C  0.48400112  0.52071350  0.11998892     0.13900
C436        C  0.44463499  0.52503155  0.15273483    -0.20500
C437        C  0.40790943  0.99619434  0.14675109    -0.07000
C438        C  0.40911661  0.96459026  0.10420026     0.13800
C439        C  0.36905154  0.93379905  0.09273135    -0.23800
H440        H  0.43543618  0.95001145  0.02962071     0.15100
H441        H  0.44488715  0.54801598  0.18753258     0.15200
C442        C  0.52461068  0.53406566  0.15297736    -0.23800
H443        H  0.37259599  0.91462124  0.05372076     0.05400
H444        H  0.33649592  0.45455224  0.08846386     0.08600
H445        H  0.36672625  0.90821425  0.12710507     0.08600
H446        H  0.05407159  0.52391821  0.13129332     0.08600
H447        H  0.02675815  0.01510312  0.19357479     0.08600
H448        H  0.52245383  0.57081439  0.16197901     0.05400
C449        C  0.17562412  0.97885866  0.45370973    -0.20400
C450        C  0.12863137  0.99626866  0.44313837    -0.07000
C451        C  0.12236366  0.00934750  0.38352801     0.13900
C452        C  0.16075335  0.01766316  0.35028178    -0.20500
C453        C  0.20469510  0.00207841  0.36550109    -0.07000
C454        C  0.21187960  0.98068477  0.41720076     0.13800
C455        C  0.25886267  0.96116384  0.43555199    -0.23800
H456        H  0.18728069  0.46364846  0.49262405     0.15100
H457        H  0.15600346  0.03206037  0.30845338     0.15200
C458        C  0.07915916  0.01025787  0.34727946    -0.23800
H459        H  0.26006652  0.94786279  0.47914602     0.05400
H460        H  0.28461203  0.48820143  0.43269881     0.08600
H461        H  0.26871972  0.93233553  0.40880054     0.08600
H462        H  0.05579991  0.53918102  0.35531696     0.08600
H463        H  0.06435745  0.97608593  0.34767247     0.08600
H464        H  0.08511249  0.01561041  0.30226791     0.05400
C465        C  0.16574094  0.52665320  0.04820973    -0.20400
C466        C  0.12817134  0.99550251  0.05224389    -0.07000
C467        C  0.13099365  0.96875967  0.10467027     0.13900
C468        C  0.17243000  0.96634862  0.13737652    -0.20500
C469        C  0.20801768  0.99625100  0.12987477    -0.07000
C470        C  0.20429721  0.52739687  0.08491476     0.13800
C471        C  0.24156957  0.56092427  0.07380697    -0.23800
H472        H  0.16567505  0.55121097  0.01493219     0.15100
H473        H  0.17465909  0.94449410  0.17450825     0.15200
C474        C  0.09296714  0.94993460  0.13913895    -0.23800
H475        H  0.23499711  0.58031110  0.03401810     0.05400
H476        H  0.27521155  0.04232375  0.07125990     0.08600
H477        H  0.24345643  0.58631420  0.10734258     0.08600
H478        H  0.05808555  0.95338708  0.12111929     0.08600
H479        H  0.09255677  0.46803452  0.17927839     0.08600
H480        H  0.10072381  0.91408703  0.15224749     0.05400
C481        C  0.09279145  0.49630989  0.99754180    -0.02600
O482        O  0.35235725  0.96246325  0.70392944    -0.71900
O483        O  0.26067502  0.96548607  0.81121624    -0.72100
O484        O  0.25979075  0.96159043  0.69964527    -0.72000
O485        O  0.35268259  0.96727630  0.81478677    -0.72000
O486        O  0.34482954  0.54147218  0.81296451    -0.72000
O487        O  0.26109290  0.53536542  0.68918572    -0.72000
O488        O  0.25283929  0.53923960  0.80026067    -0.71900
O489        O  0.35366474  0.53661278  0.70250810    -0.72100
V490        V  0.30625333  0.96560482  0.75721708     1.35200
V491        V  0.30311501  0.53682727  0.75124435     1.35200
C492        C  0.36968326  0.99870073  0.68594507     0.77300
C493        C  0.24096626  0.00257939  0.82398615     0.77400
C494        C  0.24511387  0.99770218  0.67404768     0.77200
C495        C  0.36397547  0.00554107  0.83373590     0.77200
C496        C  0.51206236  0.50231785  0.01017699    -0.02600
C497        C  0.05463364  0.54115929  0.50364931    -0.02600
O498        O  0.08900390  0.79336848  0.68916919    -0.71900
O499        O  0.09508129  0.70307680  0.80566958    -0.72100
O500        O  0.09328623  0.70254169  0.69554138    -0.72000
O501        O  0.09083090  0.79632446  0.80101123    -0.72000
O502        O  0.01649111  0.79594723  0.79867446    -0.72000
O503        O  0.01879611  0.70048943  0.69381771    -0.72000
O504        O  0.02072173  0.70283485  0.80416466    -0.71900
O505        O  0.01463718  0.79170415  0.68691523    -0.72100
V506        V  0.09060474  0.74903050  0.74809534     1.35200
V507        V  0.01906701  0.74795660  0.74630016     1.35200
C508        C  0.05082228  0.80649983  0.66645090     0.77300
C509        C  0.05878824  0.68546519  0.82260179     0.77400
C510        C  0.05678143  0.68510576  0.67732964     0.77200
C511        C  0.05331074  0.81322578  0.81718818     0.77200
C512        C  0.05007258  0.95732413  0.99507152    -0.02600
C513        C  0.01025929  0.86565603  0.87817247    -0.20400
C514        C  0.05202483  0.85215683  0.85686714    -0.07000
C515        C  0.09077605  0.87593459  0.87444748     0.13900
C516        C  0.08655591  0.90963901  0.91489272    -0.20500
C517        C  0.04507889  0.92676891  0.93803131    -0.07000
C518        C  0.00529716  0.90133601  0.91667545     0.13800
C519        C  0.45515137  0.90647272  0.92908504    -0.23800
H520        H  0.48010460  0.84730626  0.86443366     0.15100
H521        H  0.11864154  0.91976572  0.92906167     0.15200
C522        C  0.13788118  0.86565430  0.85227680    -0.23800
H523        H  0.44328901  0.87539568  0.95104695     0.05400
H524        H  0.43410037  0.91084784  0.88974081     0.08600
H525        H  0.44680829  0.93559606  0.95212437     0.08600
H526        H  0.13670928  0.87021114  0.80633150     0.08600
H527        H  0.14940313  0.83020580  0.86425178     0.08600
H528        H  0.16439337  0.88885646  0.86888465     0.05400
C529        C  0.08998893  0.84677595  0.59073883    -0.20400
C530        C  0.04931739  0.83835322  0.61725611    -0.07000
C531        C  0.00891750  0.85879231  0.59336138     0.13900
C532        C  0.01255532  0.89292157  0.55195074    -0.20500
C533        C  0.05372485  0.91356174  0.53749147    -0.07000
C534        C  0.09296880  0.88274058  0.55118881     0.13800
C535        C  0.13968069  0.88536017  0.52937205    -0.23800
H536        H  0.12073005  0.82668712  0.60316693     0.15100
H537        H  0.98303523  0.89989091  0.52715326     0.15200
C538        C  0.46185592  0.84321935  0.60793977    -0.23800
H539        H  0.16649758  0.88475045  0.56348060     0.05400
H540        H  0.14126683  0.91717224  0.50891728     0.08600
H541        H  0.14645804  0.85695694  0.50059903     0.08600
H542        H  0.45520320  0.85098069  0.65190850     0.08600
H543        H  0.95933786  0.80594050  0.60105812     0.08600
H544        H  0.43439549  0.86064050  0.58160454     0.05400
C545        C  0.09515980  0.59206189  0.93163745    -0.20400
C546        C  0.05285918  0.57392329  0.94867731    -0.07000
C547        C  0.01349226  0.59979016  0.92444124     0.13900
C548        C  0.01733054  0.62805731  0.87708772    -0.20500
C549        C  0.05948491  0.64526632  0.86243098    -0.07000
C550        C  0.09939019  0.62614046  0.88976530     0.13800
C551        C  0.14675636  0.64203673  0.87698483    -0.23800
H552        H  0.12606782  0.58201142  0.95373053     0.15100
H553        H  0.48609015  0.64346570  0.85803152     0.15200
C554        C  0.47029252  0.61167822  0.95342972    -0.23800
H555        H  0.17410607  0.62285492  0.90190258     0.05400
H556        H  0.14962091  0.67879662  0.88671584     0.08600
H557        H  0.15340077  0.63658656  0.83244653     0.08600
H558        H  0.47140941  0.59666164  0.99515335     0.08600
H559        H  0.43986571  0.60220796  0.92761996     0.08600
H560        H  0.46677462  0.64919893  0.95916676     0.05400
C561        C  0.02452403  0.64557218  0.59512068    -0.20400
C562        C  0.05893774  0.64833581  0.63693674    -0.07000
C563        C  0.09682941  0.61740529  0.63582697     0.13900
C564        C  0.09587868  0.58307984  0.59578345    -0.20500
C565        C  0.06155897  0.58105500  0.55123503    -0.07000
C566        C  0.03820358  0.62534579  0.54599186     0.13800
C567        C  0.06065992  0.66282793  0.51161032    -0.23800
H568        H  0.99761626  0.67202807  0.59246681     0.15100
H569        H  0.11590831  0.55532426  0.61158216     0.15200
C570        C  0.13502979  0.61616762  0.68040984    -0.23800
H571        H  0.06333785  0.69603199  0.53327143     0.05400
H572        H  0.04142314  0.67169043  0.97281896     0.08600
H573        H  0.09721870  0.65328038  0.00335934     0.08600
H574        H  0.12026078  0.61328137  0.72219517     0.08600
H575        H  0.15546809  0.64748575  0.67737999     0.08600
H576        H  0.15953736  0.58675791  0.67609012     0.05400
C577        C  0.38871122  0.02065581  0.93051890    -0.20400
C578        C  0.40024002  0.00860406  0.87735794    -0.07000
C579        C  0.44651893  0.50341424  0.86514845     0.13900
C580        C  0.47997179  0.50526887  0.90846305    -0.20500
C581        C  0.47079797  0.01250418  0.96425087    -0.07000
C582        C  0.42249408  0.02592269  0.97306437     0.13800
C583        C  0.40322563  0.05230497  0.02122039    -0.23800
H584        H  0.35296816  0.02899567  0.93803211     0.15100
H585        H  0.51367458  0.49775372  0.90026528     0.15200
C586        C  0.45998250  0.49468091  0.80639529    -0.23800
H587        H  0.38653357  0.08480180  0.00506666     0.05400
H588        H  0.42889861  0.56282426  0.55237875     0.06400
H589        H  0.37585909  0.03288717  0.54117667     0.08600
H590        H  0.44746206  0.52387191  0.77939133     0.08600
H591        H  0.44445688  0.96276148  0.79142516     0.08600
H592        H  0.49744055  0.49105273  0.80227718     0.05400
C593        C  0.44473568  0.96631424  0.56633618    -0.20400
C594        C  0.48405124  0.99493452  0.56883762    -0.07000
C595        C  0.48403227  0.52075183  0.61998236     0.13900
C596        C  0.44466699  0.52507708  0.65272924    -0.20500
C597        C  0.40796208  0.99620514  0.64679824    -0.07000
C598        C  0.40918131  0.96456487  0.60428200     0.13800
C599        C  0.36913901  0.93373135  0.59288134    -0.23800
H600        H  0.43546688  0.94998373  0.52964487     0.15100
H601        H  0.44491554  0.54808239  0.68750909     0.15200
C602        C  0.52465443  0.53406864  0.65299671    -0.23800
H603        H  0.37267048  0.91454997  0.55386998     0.05400
H604        H  0.33656122  0.45444911  0.58863949     0.08600
H605        H  0.36686877  0.90815193  0.62727004     0.08600
H606        H  0.05414611  0.52397339  0.63132391     0.08600
H607        H  0.02678416  0.01505985  0.69356471     0.08600
H608        H  0.52249643  0.57079830  0.66208905     0.05400
C609        C  0.17567113  0.97892191  0.95373644    -0.20400
C610        C  0.12866783  0.99629141  0.94313504    -0.07000
C611        C  0.12240597  0.00934922  0.88351573     0.13900
C612        C  0.16079783  0.01767650  0.85027854    -0.20500
C613        C  0.20475391  0.00216787  0.86554245    -0.07000
C614        C  0.21194725  0.98081155  0.91726207     0.13800
C615        C  0.25895682  0.96139114  0.93566362    -0.23800
H616        H  0.18730967  0.46369170  0.99265302     0.15100
H617        H  0.15605004  0.03204308  0.80843518     0.15200
C618        C  0.07919881  0.01028243  0.84726746    -0.23800
H619        H  0.26015973  0.94810688  0.97926465     0.05400
H620        H  0.28464543  0.48848782  0.93282186     0.08600
H621        H  0.26889614  0.93257645  0.90893414     0.08600
H622        H  0.05583654  0.53920051  0.85532429     0.08600
H623        H  0.06439314  0.97611495  0.84764216     0.08600
H624        H  0.08515044  0.01565489  0.80225902     0.05400
C625        C  0.16577753  0.52659594  0.54819935    -0.20400
C626        C  0.12815934  0.99550412  0.55227812    -0.07000
C627        C  0.13094219  0.96883010  0.60476690     0.13900
C628        C  0.17235433  0.96646239  0.63753543    -0.20500
C629        C  0.20799814  0.99628392  0.62995394    -0.07000
C630        C  0.20433655  0.52733733  0.58490290     0.13800
C631        C  0.24168756  0.56075180  0.57369050    -0.23800
H632        H  0.16577132  0.55109456  0.51486652     0.15100
H633        H  0.17454858  0.94467663  0.67472622     0.15200
C634        C  0.09291079  0.94994001  0.63917492    -0.23800
H635        H  0.23515634  0.58007239  0.53384787     0.05400
H636        H  0.27528732  0.04206480  0.57119290     0.08600
H637        H  0.24363999  0.58620190  0.60715296     0.08600
H638        H  0.05803733  0.95339702  0.62113095     0.08600
H639        H  0.09246083  0.46799427  0.67934265     0.08600
H640        H  0.10069408  0.91408962  0.65224562     0.05400
C641        C  0.59276993  0.99630398  0.49756302    -0.02600
O642        O  0.85231722  0.46243644  0.20388163    -0.71900
O643        O  0.76063760  0.46541803  0.31117490    -0.72100
O644        O  0.75976810  0.46154942  0.19959781    -0.72000
O645        O  0.85264585  0.46723233  0.31475326    -0.72000
O646        O  0.84475905  0.04142402  0.31297477    -0.72000
O647        O  0.76107057  0.03532482  0.18915465    -0.72000
O648        O  0.75277043  0.03916814  0.30022148    -0.71900
O649        O  0.85362618  0.03658552  0.20250506    -0.72100
V650        V  0.80621913  0.46555950  0.25717774     1.35200
V651        V  0.80306585  0.03678122  0.25122977     1.35200
C652        C  0.86963629  0.49867976  0.18590778     0.77300
C653        C  0.74090750  0.50250179  0.32394111     0.77400
C654        C  0.74510637  0.49766346  0.17399370     0.77200
C655        C  0.86391607  0.50549417  0.33373335     0.77200
C656        C  0.01203819  0.00230127  0.51016311    -0.02600
C657        C  0.55467894  0.04116886  0.00369097    -0.02600
O658        O  0.58914672  0.29336825  0.18910610    -0.71900
O659        O  0.59524310  0.20318777  0.30577365    -0.72100
O660        O  0.59347487  0.20253193  0.19563806    -0.72000
O661        O  0.59096044  0.29644419  0.30094470    -0.72000
O662        O  0.51662425  0.29598477  0.29866414    -0.72000
O663        O  0.51897915  0.20052509  0.19383450    -0.72000
O664        O  0.52088381  0.20288502  0.30417719    -0.71900
O665        O  0.51477939  0.29173405  0.18691888    -0.72100
V666        V  0.59076268  0.24908676  0.24811236     1.35200
V667        V  0.51922516  0.24799389  0.24630548     1.35200
C668        C  0.55095462  0.30651236  0.16641684     0.77300
C669        C  0.55894655  0.18554989  0.32267022     0.77400
C670        C  0.55696941  0.18511391  0.17739574     0.77200
C671        C  0.55343071  0.31330802  0.31714114     0.77200
C672        C  0.55005776  0.45731017  0.49510063    -0.02600
C673        C  0.51031700  0.36574914  0.37803581    -0.20400
C674        C  0.55211235  0.35223274  0.35681908    -0.07000
C675        C  0.59086343  0.37594418  0.37454250     0.13900
C676        C  0.58660130  0.40961211  0.41501878    -0.20500
C677        C  0.54509945  0.42676813  0.43805862    -0.07000
C678        C  0.50532626  0.40137049  0.41661418     0.13800
C679        C  0.95518102  0.40642796  0.42902796    -0.23800
H680        H  0.98016660  0.34743739  0.36420326     0.15100
H681        H  0.61866914  0.41966775  0.42933877     0.15200
C682        C  0.63801070  0.36561353  0.35252109    -0.23800
H683        H  0.94334871  0.37530523  0.45089803     0.05400
H684        H  0.93412217  0.41088368  0.38970995     0.08600
H685        H  0.94681102  0.43550527  0.45223917     0.08600
H686        H  0.63695402  0.37021866  0.30658336     0.08600
H687        H  0.64945158  0.33013787  0.36447743     0.08600
H688        H  0.66452354  0.38875606  0.36925953     0.05400
C689        C  0.59006857  0.34680247  0.09066492    -0.20400
C690        C  0.54941575  0.33836952  0.11722090    -0.07000
C691        C  0.50899689  0.35881694  0.09337630     0.13900
C692        C  0.51259506  0.39295523  0.05196196    -0.20500
C693        C  0.55376225  0.41358223  0.03745639    -0.07000
C694        C  0.59301295  0.38276295  0.05110214     0.13800
C695        C  0.63969089  0.38536628  0.02917949    -0.23800
H696        H  0.62082017  0.32671804  0.10305947     0.15100
H697        H  0.48306935  0.39993180  0.02720913     0.15200
C698        C  0.96194208  0.34326002  0.10801288    -0.23800
H699        H  0.66655085  0.38480867  0.06323575     0.05400
H700        H  0.64124276  0.41714490  0.00862864     0.08600
H701        H  0.64643508  0.35692084  0.00045625     0.08600
H702        H  0.95533711  0.35100637  0.15199771     0.08600
H703        H  0.45939881  0.30598594  0.10111103     0.08600
H704        H  0.93446127  0.36070891  0.08173233     0.05400
C705        C  0.59519373  0.09209925  0.43173147    -0.20400
C706        C  0.55287003  0.07391225  0.44863049    -0.07000
C707        C  0.51352322  0.09973398  0.42425985     0.13900
C708        C  0.51744942  0.12802963  0.37694472    -0.20500
C709        C  0.55961608  0.14533451  0.36248522    -0.07000
C710        C  0.59947894  0.12625406  0.38995676     0.13800
C711        C  0.64684533  0.14230473  0.37745564    -0.23800
H712        H  0.62606113  0.08204922  0.45390394     0.15100
H713        H  0.98623192  0.14338375  0.35776494     0.15200
C714        C  0.97021408  0.11155230  0.45306459    -0.23800
H715        H  0.67416302  0.12318452  0.40249588     0.05400
H716        H  0.64955295  0.17906860  0.38724800     0.08600
H717        H  0.65367321  0.13691861  0.33295282     0.08600
H718        H  0.97128303  0.09662299  0.49482706     0.08600
H719        H  0.93987887  0.10194640  0.42718190     0.08600
H720        H  0.96655330  0.14907548  0.45869741     0.05400
C721        C  0.52477366  0.14568591  0.09509596    -0.20400
C722        C  0.55911715  0.14834378  0.13700601    -0.07000
C723        C  0.59693029  0.11731461  0.13598996     0.13900
C724        C  0.59594355  0.08298151  0.09595144    -0.20500
C725        C  0.56168618  0.08104884  0.05130560    -0.07000
C726        C  0.53847928  0.12540879  0.04601219     0.13800
C727        C  0.56106416  0.16279879  0.01163080    -0.23800
H728        H  0.49795033  0.17222487  0.09236696     0.15100
H729        H  0.61588639  0.05516715  0.11179814     0.15200
C730        C  0.63506702  0.11600179  0.18065102    -0.23800
H731        H  0.56383020  0.19599893  0.03328171     0.05400
H732        H  0.54099281  0.17169102  0.47281214     0.08600
H733        H  0.59683639  0.15342595  0.50331470     0.08600
H734        H  0.62023038  0.11315776  0.22240252     0.08600
H735        H  0.65557527  0.14727629  0.17766379     0.08600
H736        H  0.65951984  0.08653998  0.17638235     0.05400
C737        C  0.88865282  0.52055268  0.43054754    -0.20400
C738        C  0.90018001  0.50855286  0.37736414    -0.07000
C739        C  0.94646153  0.00340337  0.36514298     0.13900
C740        C  0.97991787  0.00522773  0.40845784    -0.20500
C741        C  0.97075346  0.51244214  0.46424832    -0.07000
C742        C  0.92244811  0.52583881  0.47307903     0.13800
C743        C  0.90321049  0.55225763  0.52122024    -0.23800
H744        H  0.85290662  0.52886289  0.43808239     0.15100
H745        H  0.01362238  0.99773246  0.40024862     0.15200
C746        C  0.95992845  0.99476088  0.30637148    -0.23800
H747        H  0.88649702  0.58473521  0.50503668     0.05400
H748        H  0.92888130  0.06282753  0.05244085     0.06400
H749        H  0.87584653  0.53292738  0.04110926     0.08600
H750        H  0.94739825  0.02398868  0.27943357     0.08600
H751        H  0.94441314  0.46285914  0.29132927     0.08600
H752        H  0.99738917  0.99115456  0.30225097     0.05400
C753        C  0.94469191  0.46631604  0.06624978    -0.20400
C754        C  0.98403300  0.49492871  0.06882831    -0.07000
C755        C  0.98400107  0.02071355  0.11998886     0.13900
C756        C  0.94463487  0.02503141  0.15273459    -0.20500
C757        C  0.90790930  0.49619449  0.14675105    -0.07000
C758        C  0.90911647  0.46459033  0.10419951     0.13800
C759        C  0.86905097  0.43379944  0.09273185    -0.23800
H760        H  0.93543719  0.45001163  0.02961543     0.15100
H761        H  0.94488689  0.04801604  0.18753236     0.15200
C762        C  0.02461010  0.03406685  0.15297753    -0.23800
H763        H  0.87259556  0.41462150  0.05372117     0.05400
H764        H  0.83649593  0.95455250  0.08846325     0.08600
H765        H  0.86672567  0.40821469  0.12710548     0.08600
H766        H  0.55407206  0.02391763  0.13129316     0.08600
H767        H  0.52675860  0.51510145  0.19357435     0.08600
H768        H  0.02245284  0.07081559  0.16197898     0.05400
C769        C  0.67562429  0.47885826  0.45370957    -0.20400
C770        C  0.62863147  0.49626840  0.44313857    -0.07000
C771        C  0.62236362  0.50934748  0.38352829     0.13900
C772        C  0.66075323  0.51766304  0.35028233    -0.20500
C773        C  0.70469503  0.50207847  0.36550083    -0.07000
C774        C  0.71187973  0.48068467  0.41720057     0.13800
C775        C  0.75886302  0.46116374  0.43555082    -0.23800
H776        H  0.68728070  0.96364917  0.49262440     0.15100
H777        H  0.65600310  0.53206039  0.30845350     0.15200
C778        C  0.57915894  0.51025792  0.34728041    -0.23800
H779        H  0.76006722  0.44786228  0.47914463     0.05400
H780        H  0.78461216  0.98820199  0.43269987     0.08600
H781        H  0.76871971  0.43233554  0.40879902     0.08600
H782        H  0.55580011  0.03918085  0.35531604     0.08600
H783        H  0.56435730  0.47608595  0.34767312     0.08600
H784        H  0.58511198  0.51561090  0.30226892     0.05400
C785        C  0.66574088  0.02665329  0.04821017    -0.20400
C786        C  0.62817152  0.49550240  0.05224393    -0.07000
C787        C  0.63099382  0.46875972  0.10467031     0.13900
C788        C  0.67243012  0.46634848  0.13737692    -0.20500
C789        C  0.70801787  0.49625100  0.12987450    -0.07000
C790        C  0.70429722  0.02739727  0.08491474     0.13800
C791        C  0.74156984  0.06092429  0.07380706    -0.23800
H792        H  0.66567510  0.05121111  0.01493215     0.15100
H793        H  0.67465920  0.44449438  0.17450840     0.15200
C794        C  0.59296779  0.44993437  0.13914001    -0.23800
H795        H  0.73499738  0.08031124  0.03401820     0.05400
H796        H  0.77521259  0.54232269  0.07126002     0.08600
H797        H  0.74345668  0.08631420  0.10734266     0.08600
H798        H  0.55808611  0.45338633  0.12112019     0.08600
H799        H  0.59255712  0.96803361  0.17927810     0.08600
H800        H  0.60072457  0.41408691  0.15224873     0.05400
C801        C  0.59279154  0.99630981  0.99754202    -0.02600
O802        O  0.85235729  0.46246340  0.70392933    -0.71900
O803        O  0.76067508  0.46548640  0.81121615    -0.72100
O804        O  0.75979073  0.46159043  0.69964512    -0.72000
O805        O  0.85268264  0.46727669  0.81478665    -0.72000
O806        O  0.84482964  0.04147180  0.81296481    -0.72000
O807        O  0.76109287  0.03536543  0.68918618    -0.72000
O808        O  0.75283952  0.03923937  0.80026110    -0.71900
O809        O  0.85366475  0.03661252  0.70250835    -0.72100
V810        V  0.80625337  0.46560503  0.75721696     1.35200
V811        V  0.80311508  0.03682707  0.75124470     1.35200
C812        C  0.86968316  0.49870088  0.68594475     0.77300
C813        C  0.74096626  0.50257964  0.82398605     0.77400
C814        C  0.74511381  0.49770229  0.67404730     0.77200
C815        C  0.86397552  0.50554154  0.83373565     0.77200
C816        C  0.01206234  0.00231760  0.01017711    -0.02600
C817        C  0.55463364  0.04115926  0.50364952    -0.02600
O818        O  0.58900369  0.29336847  0.68916926    -0.71900
O819        O  0.59508104  0.20307654  0.80566940    -0.72100
O820        O  0.59328598  0.20254174  0.69554110    -0.72000
O821        O  0.59083065  0.29632411  0.80101128    -0.72000
O822        O  0.51649084  0.29594691  0.79867449    -0.72000
O823        O  0.51879586  0.20048955  0.69381724    -0.72000
O824        O  0.52072150  0.20283442  0.80416424    -0.71900
O825        O  0.51463697  0.29170426  0.68691520    -0.72100
V826        V  0.59060440  0.24903035  0.74809522     1.35200
V827        V  0.51906666  0.24795648  0.74629995     1.35200
C828        C  0.55082170  0.30650000  0.66645096     0.77300
C829        C  0.55878766  0.18546484  0.82260151     0.77400
C830        C  0.55678092  0.18510589  0.67732934     0.77200
C831        C  0.55331041  0.31322544  0.81718825     0.77200
C832        C  0.55007249  0.45732420  0.99507138    -0.02600
C833        C  0.51025893  0.36565595  0.87817191    -0.20400
C834        C  0.55202485  0.35215666  0.85686705    -0.07000
C835        C  0.59077613  0.37593420  0.87444778     0.13900
C836        C  0.58655559  0.40963893  0.91489244    -0.20500
C837        C  0.54507867  0.42676883  0.93803105    -0.07000
C838        C  0.50529677  0.40133610  0.91667534     0.13800
C839        C  0.95515190  0.40647074  0.92908466    -0.23800
H840        H  0.98010455  0.34730661  0.86443297     0.15100
H841        H  0.61864156  0.41976585  0.92906190     0.15200
C842        C  0.63788163  0.36565360  0.85227774    -0.23800
H843        H  0.94329032  0.37539418  0.95104581     0.05400
H844        H  0.93410068  0.41084793  0.88974179     0.08600
H845        H  0.94680836  0.43559507  0.95213170     0.08600
H846        H  0.63671017  0.37021027  0.80633242     0.08600
H847        H  0.64940355  0.33020511  0.86425288     0.08600
H848        H  0.66439394  0.38885561  0.86888578     0.05400
C849        C  0.58998830  0.34677622  0.59073865    -0.20400
C850        C  0.54931738  0.33835335  0.61725634    -0.07000
C851        C  0.50891704  0.35879264  0.59336158     0.13900
C852        C  0.51255580  0.39292148  0.55195142    -0.20500
C853        C  0.55372449  0.41356196  0.53749137    -0.07000
C854        C  0.59296873  0.38274061  0.55118889     0.13800
C855        C  0.63968066  0.38536026  0.52937250    -0.23800
H856        H  0.62072983  0.32668721  0.60316698     0.15100
H857        H  0.48303448  0.39989095  0.52715280     0.15200
C858        C  0.96185610  0.34321982  0.60794104    -0.23800
H859        H  0.66649760  0.38475085  0.56348107     0.05400
H860        H  0.64126661  0.41717230  0.50891723     0.08600
H861        H  0.64645823  0.35695712  0.50059945     0.08600
H862        H  0.95520414  0.35098176  0.65190971     0.08600
H863        H  0.45933692  0.30594113  0.60105973     0.08600
H864        H  0.93439574  0.36064137  0.58160612     0.05400
C865        C  0.59515990  0.09206171  0.93163740    -0.20400
C866        C  0.55285925  0.07392297  0.94867735    -0.07000
C867        C  0.51349226  0.09978958  0.92444145     0.13900
C868        C  0.51733001  0.12805706  0.87708803    -0.20500
C869        C  0.55948458  0.14526596  0.86243085    -0.07000
C870        C  0.59938978  0.12614013  0.88976485     0.13800
C871        C  0.64675585  0.14203634  0.87698368    -0.23800
H872        H  0.62606784  0.08201164  0.95373067     0.15100
H873        H  0.98608994  0.14346542  0.85803163     0.15200
C874        C  0.97029206  0.11167685  0.95342934    -0.23800
H875        H  0.67410551  0.12285447  0.90190125     0.05400
H876        H  0.64962053  0.17879623  0.88671472     0.08600
H877        H  0.65340002  0.13658581  0.83244536     0.08600
H878        H  0.97140927  0.09666055  0.99515305     0.08600
H879        H  0.93986546  0.10220650  0.92761911     0.08600
H880        H  0.96677354  0.14919746  0.95916644     0.05400
C881        C  0.52452367  0.14557272  0.59512029    -0.20400
C882        C  0.55893739  0.14833601  0.63693651    -0.07000
C883        C  0.59682908  0.11740557  0.63582673     0.13900
C884        C  0.59587800  0.08308039  0.59578328    -0.20500
C885        C  0.56155867  0.08105520  0.55123500    -0.07000
C886        C  0.53820343  0.12534628  0.54599153     0.13800
C887        C  0.56066005  0.16282841  0.51161026    -0.23800
H888        H  0.49761598  0.17202854  0.59246649     0.15100
H889        H  0.61590788  0.05532424  0.61158209     0.15200
C890        C  0.63502956  0.11616819  0.68040958    -0.23800
H891        H  0.56333798  0.19603260  0.53327123     0.05400
H892        H  0.54142308  0.17168981  0.97281836     0.08600
H893        H  0.59721875  0.15327961  0.00335919     0.08600
H894        H  0.62026070  0.11328208  0.72219496     0.08600
H895        H  0.65546796  0.14748627  0.67737974     0.08600
H896        H  0.65953687  0.08675818  0.67609019     0.05400
C897        C  0.88871139  0.52065660  0.93051875    -0.20400
C898        C  0.90023994  0.50860463  0.87735773    -0.07000
C899        C  0.94651912  0.00341420  0.86514869     0.13900
C900        C  0.97997142  0.00526907  0.90846345    -0.20500
C901        C  0.97079797  0.51250430  0.96425058    -0.07000
C902        C  0.92249414  0.52592335  0.97306414     0.13800
C903        C  0.90322624  0.55230552  0.02122071    -0.23800
H904        H  0.85296820  0.52899644  0.93803201     0.15100
H905        H  0.01367512  0.99775363  0.90026549     0.15200
C906        C  0.95998282  0.99468181  0.80639555    -0.23800
H907        H  0.88653426  0.58480245  0.00506725     0.05400
H908        H  0.92889927  0.06282403  0.55237917     0.06400
H909        H  0.87585874  0.53288708  0.54117615     0.08600
H910        H  0.94746222  0.02387308  0.77939217     0.08600
H911        H  0.94445682  0.46276052  0.79142563     0.08600
H912        H  0.99744094  0.99105409  0.80227755     0.05400
C913        C  0.94473578  0.46631465  0.56633646    -0.20400
C914        C  0.98405115  0.49493465  0.56883734    -0.07000
C915        C  0.98403235  0.02075172  0.61998271     0.13900
C916        C  0.94466675  0.02507703  0.65272911    -0.20500
C917        C  0.90796200  0.49620525  0.64679794    -0.07000
C918        C  0.90918134  0.46456502  0.60428158     0.13800
C919        C  0.86913954  0.43373100  0.59288072    -0.23800
H920        H  0.93546713  0.44998337  0.52964420     0.15100
H921        H  0.94491499  0.04808250  0.68750884     0.15200
C922        C  0.02465404  0.03406851  0.65299816    -0.23800
H923        H  0.87267107  0.41454949  0.55386936     0.05400
H924        H  0.83656213  0.95444735  0.58864011     0.08600
H925        H  0.86686993  0.40815169  0.62726953     0.08600
H926        H  0.55414646  0.02397329  0.63132520     0.08600
H927        H  0.52678527  0.51506011  0.69356328     0.08600
H928        H  0.02249608  0.07079820  0.66209026     0.05400
C929        C  0.67567090  0.47892187  0.95373574    -0.20400
C930        C  0.62866764  0.49629132  0.94313489    -0.07000
C931        C  0.62240569  0.50934943  0.88351534     0.13900
C932        C  0.66079768  0.51767658  0.85027875    -0.20500
C933        C  0.70475382  0.50216822  0.86554215    -0.07000
C934        C  0.71194729  0.48081183  0.91726202     0.13800
C935        C  0.75895737  0.46139241  0.93566334    -0.23800
H936        H  0.68731018  0.96369226  0.99265332     0.15100
H937        H  0.65604994  0.53204373  0.80843526     0.15200
C938        C  0.57919869  0.51028286  0.84726672    -0.23800
H939        H  0.76016046  0.44810838  0.97926452     0.05400
H940        H  0.78464587  0.98848801  0.93282164     0.08600
H941        H  0.76889762  0.43257784  0.90893414     0.08600
H942        H  0.55583658  0.03920038  0.85532503     0.08600
H943        H  0.56439298  0.47611533  0.84764122     0.08600
H944        H  0.58515054  0.51565538  0.80225824     0.05400
C945        C  0.66577738  0.02659587  0.54820047    -0.20400
C946        C  0.62815922  0.49550417  0.55227780    -0.07000
C947        C  0.63094203  0.46883036  0.60476671     0.13900
C948        C  0.67235419  0.46646280  0.63753484    -0.20500
C949        C  0.70799816  0.49628399  0.62995340    -0.07000
C950        C  0.70433643  0.02733738  0.58490369     0.13800
C951        C  0.74168762  0.06075176  0.57369180    -0.23800
H952        H  0.66577083  0.05109523  0.51486750     0.15100
H953        H  0.67454832  0.44467718  0.67472612     0.15200
C954        C  0.59291081  0.44994016  0.63917522    -0.23800
H955        H  0.73515651  0.08007264  0.53384930     0.05400
H956        H  0.77528714  0.54206469  0.57119177     0.08600
H957        H  0.74363994  0.08620173  0.60715441     0.08600
H958        H  0.55803719  0.45339649  0.62113160     0.08600
H959        H  0.59246144  0.96799399  0.67934323     0.08600
H960        H  0.60069430  0.41408978  0.65224594     0.05400
C961        C  0.59276983  0.49630403  0.49756273    -0.02600
O962        O  0.85231706  0.96243624  0.20388166    -0.71900
O963        O  0.76063737  0.96541789  0.31117508    -0.72100
O964        O  0.75976788  0.96154932  0.19959791    -0.72000
O965        O  0.85264567  0.96723179  0.31475336    -0.72000
O966        O  0.84475880  0.54142452  0.31297445    -0.72000
O967        O  0.76107046  0.53532491  0.18915433    -0.72000
O968        O  0.75277017  0.53916822  0.30022104    -0.71900
O969        O  0.85362595  0.53658574  0.20250473    -0.72100
V970        V  0.80621894  0.96555930  0.25717782     1.35200
V971        V  0.80306567  0.53678141  0.25122943     1.35200
C972        C  0.86963641  0.99867950  0.18590791     0.77300
C973        C  0.74090760  0.00250170  0.32394141     0.77400
C974        C  0.74510628  0.99766376  0.17399386     0.77200
C975        C  0.86391605  0.00549365  0.33373359     0.77200
C976        C  0.01203817  0.50230141  0.51016293    -0.02600
C977        C  0.55467896  0.54116900  0.00369090    -0.02600
O978        O  0.58914722  0.79336806  0.18910610    -0.71900
O979        O  0.59524343  0.70318787  0.30577390    -0.72100
O980        O  0.59347507  0.70253177  0.19563822    -0.72000
O981        O  0.59096079  0.79644429  0.30094466    -0.72000
O982        O  0.51662458  0.79598487  0.29866382    -0.72000
O983        O  0.51897937  0.70052490  0.19383481    -0.72000
O984        O  0.52088414  0.70288535  0.30417734    -0.71900
O985        O  0.51477984  0.79173390  0.18691858    -0.72100
V986        V  0.59076305  0.74908675  0.24811246     1.35200
V987        V  0.51922551  0.74799390  0.24630543     1.35200
C988        C  0.55095497  0.80651212  0.16641665     0.77300
C989        C  0.55894673  0.68555016  0.32267040     0.77400
C990        C  0.55696989  0.68511369  0.17739614     0.77200
C991        C  0.55343087  0.81330811  0.31714091     0.77200
C992        C  0.55005787  0.95731015  0.49510084    -0.02600
C993        C  0.51031691  0.86574876  0.37803586    -0.20400
C994        C  0.55211257  0.85223286  0.35681898    -0.07000
C995        C  0.59086335  0.87594439  0.37454236     0.13900
C996        C  0.58660166  0.90961234  0.41501908    -0.20500
C997        C  0.54509947  0.92676792  0.43805882    -0.07000
C998        C  0.50532655  0.90137020  0.41661449     0.13800
C999        C  0.95518113  0.90642793  0.42902867    -0.23800
H1000       H  0.98016709  0.84743688  0.36420384     0.15100
H1001       H  0.61866894  0.91966765  0.42933907     0.15200
C1002       C  0.63801077  0.86561441  0.35252103    -0.23800
H1003       H  0.94334908  0.87530486  0.45089871     0.05400
H1004       H  0.93412204  0.91088297  0.38971055     0.08600
H1005       H  0.94681129  0.93550473  0.45223887     0.08600
H1006       H  0.63695393  0.87021960  0.30658327     0.08600
H1007       H  0.64945188  0.83013883  0.36447744     0.08600
H1008       H  0.66452339  0.88875711  0.36925956     0.05400
C1009       C  0.59006917  0.84680236  0.09066463    -0.20400
C1010       C  0.54941626  0.83836931  0.11722062    -0.07000
C1011       C  0.50899732  0.85881673  0.09337603     0.13900
C1012       C  0.51259487  0.89295529  0.05196130    -0.20500
C1013       C  0.55376263  0.91358210  0.03745634    -0.07000
C1014       C  0.59301331  0.88276288  0.05110191     0.13800
C1015       C  0.63969110  0.88536747  0.02917871    -0.23800
H1016       H  0.62082088  0.82671787  0.10305887     0.15100
H1017       H  0.48307050  0.89993127  0.02720893     0.15200
C1018       C  0.96194205  0.84326041  0.10801142    -0.23800
H1019       H  0.66655126  0.88480994  0.06323504     0.05400
H1020       H  0.64124211  0.91714554  0.00862850     0.08600
H1021       H  0.64643607  0.85692189  0.00045537     0.08600
H1022       H  0.95533705  0.85100674  0.15199624     0.08600
H1023       H  0.45939853  0.80598633  0.10110972     0.08600
H1024       H  0.93446150  0.86070926  0.08173061     0.05400
C1025       C  0.59519371  0.59209944  0.43173153    -0.20400
C1026       C  0.55286995  0.57391247  0.44863034    -0.07000
C1027       C  0.51352317  0.59973409  0.42425956     0.13900
C1028       C  0.51744923  0.62803001  0.37694441    -0.20500
C1029       C  0.55961610  0.64533478  0.36248530    -0.07000
C1030       C  0.59947881  0.62625443  0.38995696     0.13800
C1031       C  0.64684502  0.64230555  0.37745629    -0.23800
H1032       H  0.62606098  0.58204959  0.45390404     0.15100
H1033       H  0.98623181  0.64338418  0.35776488     0.15200
C1034       C  0.97021382  0.61155256  0.45306429    -0.23800
H1035       H  0.67416263  0.62318534  0.40249667     0.05400
H1036       H  0.64955217  0.67906941  0.38724885     0.08600
H1037       H  0.65367334  0.63691950  0.33295359     0.08600
H1038       H  0.97128295  0.59662319  0.49482685     0.08600
H1039       H  0.93987886  0.60194643  0.42718149     0.08600
H1040       H  0.96655292  0.64907566  0.45869728     0.05400
C1041       C  0.52477387  0.64568577  0.09509641    -0.20400
C1042       C  0.55911733  0.64834357  0.13700625    -0.07000
C1043       C  0.59693077  0.61731467  0.13598974     0.13900
C1044       C  0.59594372  0.58298138  0.09595137    -0.20500
C1045       C  0.56168631  0.58104894  0.05130557    -0.07000
C1046       C  0.53847943  0.62540896  0.04601245     0.13800
C1047       C  0.56106425  0.66279931  0.01163147    -0.23800
H1048       H  0.49795069  0.67222501  0.09236746     0.15100
H1049       H  0.61588652  0.55516707  0.11179802     0.15200
C1050       C  0.63506810  0.61600252  0.18064983    -0.23800
H1051       H  0.56383020  0.69599944  0.03328256     0.05400
H1052       H  0.54099297  0.67169067  0.47281213     0.08600
H1053       H  0.59683653  0.65342556  0.50331502     0.08600
H1054       H  0.62023189  0.61315873  0.22240158     0.08600
H1055       H  0.65557586  0.64727736  0.17766196     0.08600
H1056       H  0.65952107  0.58654084  0.17638106     0.05400
C1057       C  0.88865295  0.02055214  0.43054778    -0.20400
C1058       C  0.90017994  0.00855217  0.37736438    -0.07000
C1059       C  0.94646152  0.50340390  0.36514297     0.13900
C1060       C  0.97991828  0.50522783  0.40845784    -0.20500
C1061       C  0.97075360  0.01244194  0.46424838    -0.07000
C1062       C  0.92244811  0.02583848  0.47307925     0.13800
C1063       C  0.90321057  0.05225722  0.52122059    -0.23800
H1064       H  0.85290665  0.02886237  0.43808261     0.15100
H1065       H  0.01362202  0.49773259  0.40024918     0.15200
C1066       C  0.95992885  0.49476171  0.30637156    -0.23800
H1067       H  0.88649662  0.08473461  0.50503711     0.05400
H1068       H  0.92888156  0.56282818  0.05244060     0.06400
H1069       H  0.87584651  0.03292658  0.04110915     0.08600
H1070       H  0.94739872  0.52398965  0.27943386     0.08600
H1071       H  0.94441278  0.96285824  0.29132928     0.08600
H1072       H  0.99738948  0.49115525  0.30225112     0.05400
C1073       C  0.94469163  0.96631434  0.06624753    -0.20400
C1074       C  0.98403329  0.99492875  0.06882881    -0.07000
C1075       C  0.98400093  0.52071356  0.11998896     0.13900
C1076       C  0.94463478  0.52503155  0.15273487    -0.20500
C1077       C  0.90790937  0.99619426  0.14675120    -0.07000
C1078       C  0.90911665  0.96459022  0.10420027     0.13800
C1079       C  0.86905157  0.93379901  0.09273139    -0.23800
H1080       H  0.93543600  0.95001199  0.02962018     0.15100
H1081       H  0.94488690  0.54801599  0.18753258     0.15200
C1082       C  0.02461016  0.53406597  0.15297777    -0.23800
H1083       H  0.87259627  0.91462123  0.05372080     0.05400
H1084       H  0.83649537  0.45455289  0.08846399     0.08600
H1085       H  0.86672630  0.90821416  0.12710502     0.08600
H1086       H  0.55407193  0.52391785  0.13129291     0.08600
H1087       H  0.52675840  0.01510222  0.19357443     0.08600
H1088       H  0.02245337  0.57081463  0.16197924     0.05400
C1089       C  0.67562409  0.97885869  0.45370977    -0.20400
C1090       C  0.62863138  0.99626864  0.44313840    -0.07000
C1091       C  0.62236363  0.00934740  0.38352802     0.13900
C1092       C  0.66075330  0.01766311  0.35028178    -0.20500
C1093       C  0.70469505  0.00207846  0.36550113    -0.07000
C1094       C  0.71187957  0.98068481  0.41720080     0.13800
C1095       C  0.75886265  0.96116387  0.43555201    -0.23800
H1096       H  0.68728100  0.46364851  0.49262418     0.15100
H1097       H  0.65600333  0.03206025  0.30845333     0.15200
C1098       C  0.57915935  0.01025767  0.34727932    -0.23800
H1099       H  0.76006652  0.94786281  0.47914604     0.05400
H1100       H  0.78461251  0.48820189  0.43269875     0.08600
H1101       H  0.76871974  0.93233557  0.40880056     0.08600
H1102       H  0.55579974  0.53918088  0.35531711     0.08600
H1103       H  0.56435762  0.97608560  0.34767228     0.08600
H1104       H  0.58511240  0.01561031  0.30226796     0.05400
C1105       C  0.66574117  0.52665352  0.04820948    -0.20400
C1106       C  0.62817140  0.99550246  0.05224400    -0.07000
C1107       C  0.63099383  0.96875949  0.10467038     0.13900
C1108       C  0.67243015  0.96634863  0.13737663    -0.20500
C1109       C  0.70801768  0.99625112  0.12987484    -0.07000
C1110       C  0.70429752  0.52739691  0.08491460     0.13800
C1111       C  0.74157032  0.56092392  0.07380689    -0.23800
H1112       H  0.66567565  0.55121096  0.01493223     0.15100
H1113       H  0.67465939  0.94449415  0.17450826     0.15200
C1114       C  0.59296784  0.94993367  0.13913950    -0.23800
H1115       H  0.73499811  0.58031096  0.03401812     0.05400
H1116       H  0.77521215  0.04232321  0.07126004     0.08600
H1117       H  0.74345718  0.58631383  0.10734250     0.08600
H1118       H  0.55808612  0.95338595  0.12111993     0.08600
H1119       H  0.59255727  0.46803440  0.17927866     0.08600
H1120       H  0.60072475  0.91408617  0.15224805     0.05400
C1121       C  0.59279150  0.49630990  0.99754183    -0.02600
O1122       O  0.85235712  0.96246316  0.70392941    -0.71900
O1123       O  0.76067492  0.96548610  0.81121611    -0.72100
O1124       O  0.75979065  0.96159042  0.69964522    -0.72000
O1125       O  0.85268242  0.96727628  0.81478682    -0.72000
O1126       O  0.84482961  0.54147219  0.81296447    -0.72000
O1127       O  0.76109294  0.53536542  0.68918578    -0.72000
O1128       O  0.75283939  0.53923960  0.80026069    -0.71900
O1129       O  0.85366473  0.53661277  0.70250804    -0.72100
V1130       V  0.80625322  0.96560481  0.75721704     1.35200
V1131       V  0.80311506  0.53682727  0.75124435     1.35200
C1132       C  0.86968313  0.99870063  0.68594496     0.77300
C1133       C  0.74096625  0.00257945  0.82398615     0.77400
C1134       C  0.74511384  0.99770224  0.67404771     0.77200
C1135       C  0.86397543  0.00554104  0.83373585     0.77200
C1136       C  0.01206232  0.50231782  0.01017705    -0.02600
C1137       C  0.55463357  0.54115932  0.50364931    -0.02600
O1138       O  0.58900383  0.79336853  0.68916911    -0.71900
O1139       O  0.59508143  0.70307680  0.80566957    -0.72100
O1140       O  0.59328635  0.70254172  0.69554138    -0.72000
O1141       O  0.59083104  0.79632443  0.80101119    -0.72000
O1142       O  0.51649125  0.79594723  0.79867447    -0.72000
O1143       O  0.51879623  0.70048945  0.69381772    -0.72000
O1144       O  0.52072188  0.70283481  0.80416470    -0.71900
O1145       O  0.51463710  0.79170416  0.68691523    -0.72100
V1146       V  0.59060473  0.74903051  0.74809530     1.35200
V1147       V  0.51906700  0.74795660  0.74630017     1.35200
C1148       C  0.55082198  0.80649993  0.66645086     0.77300
C1149       C  0.55878809  0.68546514  0.82260178     0.77400
C1150       C  0.55678119  0.68510582  0.67732963     0.77200
C1151       C  0.55331051  0.81322572  0.81718815     0.77200
C1152       C  0.55007254  0.95732408  0.99507148    -0.02600
C1153       C  0.51025894  0.86565586  0.87817235    -0.20400
C1154       C  0.55202480  0.85215672  0.85686707    -0.07000
C1155       C  0.59077600  0.87593446  0.87444757     0.13900
C1156       C  0.58655522  0.90963875  0.91489230    -0.20500
C1157       C  0.54507872  0.92676883  0.93803126    -0.07000
C1158       C  0.50529688  0.90133590  0.91667524     0.13800
C1159       C  0.95515174  0.90647258  0.92908536    -0.23800
H1160       H  0.98010481  0.84730636  0.86443374     0.15100
H1161       H  0.61864154  0.91976590  0.92906179     0.15200
C1162       C  0.63788129  0.86565366  0.85227718    -0.23800
H1163       H  0.94328928  0.87539555  0.95104705     0.05400
H1164       H  0.93410083  0.91084799  0.88974124     0.08600
H1165       H  0.94680846  0.93559592  0.95212530     0.08600
H1166       H  0.63670961  0.87021043  0.80633191     0.08600
H1167       H  0.64940316  0.83020515  0.86425228     0.08600
H1168       H  0.66439366  0.88885578  0.86888499     0.05400
C1169       C  0.58998842  0.84677624  0.59073873    -0.20400
C1170       C  0.54931716  0.83835339  0.61725616    -0.07000
C1171       C  0.50891712  0.85879240  0.59336126     0.13900
C1172       C  0.51255506  0.89292169  0.55195063    -0.20500
C1173       C  0.55372478  0.91356197  0.53749165    -0.07000
C1174       C  0.59296878  0.88274069  0.55118893     0.13800
C1175       C  0.63968090  0.88536015  0.52937246    -0.23800
H1176       H  0.62072968  0.82668699  0.60316672     0.15100
H1177       H  0.48303504  0.89989093  0.52715333     0.15200
C1178       C  0.96185642  0.84321926  0.60794006    -0.23800
H1179       H  0.66649789  0.88475028  0.56348104     0.05400
H1180       H  0.64126722  0.91717214  0.50891758     0.08600
H1181       H  0.64645862  0.85695698  0.50059942     0.08600
H1182       H  0.95520369  0.85098077  0.65190873     0.08600
H1183       H  0.45933735  0.80594058  0.60105783     0.08600
H1184       H  0.93439617  0.86064048  0.58160469     0.05400
C1185       C  0.59516038  0.59206174  0.93163784    -0.20400
C1186       C  0.55285925  0.57392330  0.94867738    -0.07000
C1187       C  0.51349243  0.59979017  0.92444165     0.13900
C1188       C  0.51733030  0.62805738  0.87708797    -0.20500
C1189       C  0.55948502  0.64526621  0.86243105    -0.07000
C1190       C  0.59939012  0.62614045  0.88976527     0.13800
C1191       C  0.64675643  0.64203669  0.87698490    -0.23800
H1192       H  0.62606780  0.58201155  0.95373035     0.15100
H1193       H  0.98609033  0.64346561  0.85803097     0.15200
C1194       C  0.97029207  0.61167824  0.95342847    -0.23800
H1195       H  0.67410613  0.62285496  0.90190259     0.05400
H1196       H  0.64962085  0.67879658  0.88671597     0.08600
H1197       H  0.65340094  0.63658666  0.83244656     0.08600
H1198       H  0.97140889  0.59666201  0.99515231     0.08600
H1199       H  0.93986556  0.60220773  0.92761835     0.08600
H1200       H  0.96677406  0.64919896  0.95916527     0.05400
C1201       C  0.52452383  0.64557253  0.59512055    -0.20400
C1202       C  0.55893773  0.64833587  0.63693676    -0.07000
C1203       C  0.59682925  0.61740538  0.63582687     0.13900
C1204       C  0.59587851  0.58308023  0.59578319    -0.20500
C1205       C  0.56155884  0.58105514  0.55123494    -0.07000
C1206       C  0.53820350  0.62534597  0.54599174     0.13800
C1207       C  0.56066013  0.66282796  0.51161030    -0.23800
H1208       H  0.49761621  0.67202826  0.59246669     0.15100
H1209       H  0.61590820  0.55532432  0.61158194     0.15200
C1210       C  0.63502972  0.61616765  0.68040968    -0.23800
H1211       H  0.56333822  0.69603202  0.53327134     0.05400
H1212       H  0.54142333  0.67169037  0.97281896     0.08600
H1213       H  0.59721876  0.65328013  0.00335957     0.08600
H1214       H  0.62026094  0.61328139  0.72219514     0.08600
H1215       H  0.65546803  0.64748573  0.67737964     0.08600
H1216       H  0.65953721  0.58675789  0.67608974     0.05400
C1217       C  0.88871127  0.02065585  0.93051896    -0.20400
C1218       C  0.90023993  0.00860405  0.87735800    -0.07000
C1219       C  0.94651906  0.50341429  0.86514847     0.13900
C1220       C  0.97997145  0.50526903  0.90846314    -0.20500
C1221       C  0.97079808  0.01250414  0.96425083    -0.07000
C1222       C  0.92249409  0.02592268  0.97306443     0.13800
C1223       C  0.90322614  0.05230483  0.02122078    -0.23800
H1224       H  0.85296814  0.02899577  0.93803220     0.15100
H1225       H  0.01367501  0.49775388  0.90026495     0.15200
C1226       C  0.95998268  0.49468117  0.80639534    -0.23800
H1227       H  0.88653425  0.08480174  0.00506719     0.05400
H1228       H  0.92889925  0.56282417  0.55237891     0.06400
H1229       H  0.87585911  0.03288638  0.54117667     0.08600
H1230       H  0.94746236  0.52387223  0.77939144     0.08600
H1231       H  0.94445711  0.96276126  0.79142528     0.08600
H1232       H  0.99744078  0.49105287  0.80227747     0.05400
C1233       C  0.94473587  0.96631400  0.56633601    -0.20400
C1234       C  0.98405131  0.99493449  0.56883768    -0.07000
C1235       C  0.98403233  0.52075177  0.61998257     0.13900
C1236       C  0.94466692  0.52507712  0.65272931    -0.20500
C1237       C  0.90796201  0.99620493  0.64679811    -0.07000
C1238       C  0.90918155  0.96456448  0.60428204     0.13800
C1239       C  0.86914001  0.93372992  0.59288165    -0.23800
H1240       H  0.93546716  0.94998367  0.52964508     0.15100
H1241       H  0.94491541  0.54808236  0.68750912     0.15200
C1242       C  0.02465420  0.53406845  0.65299760    -0.23800
H1243       H  0.87267160  0.91454844  0.55387038     0.05400
H1244       H  0.83656183  0.45444868  0.58863942     0.08600
H1245       H  0.86687030  0.90815065  0.62727064     0.08600
H1246       H  0.55414597  0.52397333  0.63132272     0.08600
H1247       H  0.52678425  0.01505979  0.69356473     0.08600
H1248       H  0.02249637  0.57079809  0.66208971     0.05400
C1249       C  0.67567113  0.97892186  0.95373637    -0.20400
C1250       C  0.62866784  0.99629127  0.94313502    -0.07000
C1251       C  0.62240595  0.00934919  0.88351571     0.13900
C1252       C  0.66079780  0.01767654  0.85027854    -0.20500
C1253       C  0.70475390  0.00216798  0.86554239    -0.07000
C1254       C  0.71194733  0.98081181  0.91726208     0.13800
C1255       C  0.75895724  0.96139230  0.93566367    -0.23800
H1256       H  0.68730986  0.46369183  0.99265300     0.15100
H1257       H  0.65605000  0.03204314  0.80843520     0.15200
C1258       C  0.57919891  0.01028245  0.84726731    -0.23800
H1259       H  0.76016031  0.94810833  0.97926483     0.05400
H1260       H  0.78464597  0.48848818  0.93282179     0.08600
H1261       H  0.76889726  0.93257770  0.90893443     0.08600
H1262       H  0.55583610  0.53920061  0.85532449     0.08600
H1263       H  0.56439320  0.97611494  0.84764198     0.08600
H1264       H  0.58515051  0.01565490  0.80225895     0.05400
C1265       C  0.66577734  0.52659596  0.54819940    -0.20400
C1266       C  0.62815937  0.99550414  0.55227834    -0.07000
C1267       C  0.63094223  0.96883009  0.60476715     0.13900
C1268       C  0.67235450  0.96646239  0.63753551    -0.20500
C1269       C  0.70799818  0.99628393  0.62995391    -0.07000
C1270       C  0.70433626  0.52733738  0.58490296     0.13800
C1271       C  0.74168689  0.56075219  0.57369061    -0.23800
H1272       H  0.66577108  0.55109461  0.51486662     0.15100
H1273       H  0.67454887  0.94467659  0.67472619     0.15200
C1274       C  0.59291123  0.94993992  0.63917593    -0.23800
H1275       H  0.73515570  0.58007281  0.53384798     0.05400
H1276       H  0.77528793  0.04206428  0.57119293     0.08600
H1277       H  0.74363902  0.58620214  0.60715324     0.08600
H1278       H  0.55803745  0.95339642  0.62113243     0.08600
H1279       H  0.59246062  0.46799408  0.67934266     0.08600
H1280       H  0.60069468  0.91408957  0.65224666     0.05400
loop_ 
_geom_bond_atom_site_label_1 
_geom_bond_atom_site_label_2 
_geom_bond_distance 
_geom_bond_site_symmetry_2 
_ccdc_geom_bond_type 
C1          C177   1.706   1_565  S
C1          C352   1.711       .  S
C1          C450   1.705       .  S
C1          C626   1.642       .  S
O2           V10   1.892       .  S
O2           C12   1.262       .  A
O3           V10   1.891       .  S
O3           C13   1.262       .  A
O4           V10   1.908       .  S
O4           C14   1.267       .  A
O5           V10   1.903       .  S
O5           C15   1.265       .  A
O6           V11   1.894       .  S
O6          C335   1.261       .  A
O7           V11   1.898       .  S
O7          C334   1.263   1_545  A
O8           V11   1.914       .  S
O8          C333   1.267       .  A
O9           V11   1.915       .  S
O9          C332   1.268   1_545  A
V10         V331   2.084       .  T
V11         V330   2.084   1_545  T
C12         O329   1.268       .  A
C12         C117   1.486       .  S
C13         O328   1.267       .  A
C13         C133   1.480       .  S
C14         O327   1.263       .  A
C14         C149   1.489       .  S
C15         O326   1.261       .  A
C15          C98   1.468       .  S
C16         C817   1.715       .  S
C16         C992   1.748   1_545  S
C16         C421   1.620       .  S
C16         C594   1.669   1_545  S
C17         C161   1.706   1_544  S
C17         C816   1.715       .  S
C17          C85   1.664       .  S
C17         C226   1.617   1_554  S
O18          V26   1.901       .  S
O18          C28   1.267       .  A
O19          V26   1.910       .  S
O19          C29   1.265       .  A
O20          V26   1.878       .  S
O20          C30   1.260       .  A
O21          V26   1.900       .  S
O21          C31   1.264       .  A
O22          V27   1.908       .  S
O22          C31   1.268       .  A
O23          V27   1.896       .  S
O23          C30   1.262       .  A
O24          V27   1.897       .  S
O24          C29   1.267       .  A
O25          V27   1.897       .  S
O25          C28   1.263       .  A
V26          V27   2.082       .  T
C28          C50   1.490       .  S
C29          C69   1.501       .  S
C30          C82   1.466       .  S
C31          C34   1.502       .  S
C32         C321   1.711       .  S
C32         C976   1.748       .  S
C32          C37   1.658       .  S
C32         C213   1.619       .  S
C33          C34   1.387       .  A
C33          C38   1.418       .  A
C33         H680   1.087   1_455  S
C34          C35   1.399       .  A
C35          C42   1.514       .  S
C35          C36   1.406       .  A
C36          C37   1.430       .  A
C36          H41   1.036       .  S
C37          C38   1.476       .  A
C38         C679   1.504   1_455  S
C39         C678   1.504       .  S
C39          H43   1.112       .  S
C39          H44   1.112       .  S
C39          H45   1.055       .  S
H40         C673   1.087       .  S
C42          H46   1.110       .  S
C42          H47   1.110       .  S
C42          H48   1.111       .  S
C49          C50   1.391       .  A
C49          C54   1.411       .  A
C49          H56   1.086       .  S
C50          C51   1.403       .  A
C51         C698   1.507   1_455  S
C51          C52   1.405       .  A
C52          C53   1.409       .  A
C52          H57   1.041   1_455  S
C53         C192   1.619   1_554  S
C53          C54   1.459       .  A
C54          C55   1.479       .  S
C55          H59   1.112       .  S
C55          H60   1.047       .  S
C55          H61   1.111       .  S
C58         C691   1.507       .  S
C58          H62   1.110       .  S
C58          H64   1.108       .  S
C58         H703   1.110       .  S
H63         C698   1.110       .  S
C65          C66   1.425       .  A
C65          C70   1.414       .  A
C65          H72   1.059       .  S
C66         C177   1.617       .  S
C66          C67   1.453       .  A
C67         C714   1.496   1_455  S
C67          C68   1.404       .  A
C68          C69   1.394       .  A
C68         H713   1.085   1_455  S
C69          C70   1.410       .  A
C70          C71   1.508       .  S
C71          H75   1.111       .  S
C71          H76   1.110       .  S
C71          H77   1.110       .  S
H73         C708   1.085       .  S
C74         C707   1.496       .  S
C74          H78   1.087       .  S
C74          H79   1.108       .  S
C74          H80   1.111       .  S
C81          C82   1.399       .  A
C81          C86   1.399       .  A
C81          H88   1.084   1_455  S
C82          C83   1.408       .  A
C83          C90   1.516       .  S
C83          C84   1.406       .  A
C84          C85   1.442       .  A
C84          H89   1.043       .  S
C85          C86   1.447       .  A
C86          C87   1.535       .  S
C87          H91   1.115       .  S
C87         H252   1.100   1_554  S
C87         H253   1.107       .  S
C90          H94   1.111       .  S
C90          H95   1.109       .  S
C90          H96   1.111       .  S
H92         C247   1.100       .  S
H93         C247   1.107       .  S
C97          C98   1.385       .  A
C97         C102   1.408       .  A
C97         H104   1.084       .  S
C98         C419   1.394       .  A
C99         C106   1.506   1_545  S
C99         C100   1.403       .  A
C99         C418   1.394       .  A
C100        C421   1.398       .  A
C100        H105   1.026   1_545  S
C101        C336   1.620       .  S
C101        C102   1.473       .  A
C101        C420   1.398       .  A
C102        C103   1.521       .  S
C103        H107   1.112       .  S
C103        H588   1.095       .  S
C103        H269   1.108       .  S
C106        H110   1.108   1_565  S
C106        H112   1.101       .  S
C106        H431   1.110       .  S
H108        C583   1.095       .  S
H109        C263   1.108       .  S
H111        C426   1.110       .  S
C113        C114   1.438       .  A
C113        C118   1.407       .  A
C113        H120   1.042       .  S
C114        C496   1.669       .  S
C114        C435   1.457       .  A
C115        C122   1.467       .  S
C115        C116   1.418       .  A
C115        C434   1.457   1_545  A
C116        C437   1.386   1_545  A
C116        H121   1.085       .  S
C117        C118   1.395       .  A
C117        C436   1.386       .  A
C118        C119   1.515       .  S
C119        H123   1.110       .  S
C119        H125   1.109       .  S
C119        H444   1.111       .  S
C122        H128   1.101       .  S
C122        H766   1.058       .  S
C122       H1087   1.113       .  S
H124        C439   1.111       .  S
H126        C762   1.058       .  S
H127       C1082   1.113       .  S
C129        C130   1.458       .  A
C129        C134   1.399       .  A
C129        H456   1.068       .  S
C130        C321   1.705       .  S
C130        C131   1.481       .  A
C131        C138   1.504       .  S
C131        C132   1.422       .  A
C132        C133   1.380       .  A
C132        H137   1.086       .  S
C133        C134   1.388       .  A
C134        C135   1.514       .  S
C135        H139   1.111       .  S
C135        H141   1.109       .  S
C135        H460   1.108       .  S
H136        C449   1.068       .  S
C138        H143   1.100       .  S
C138        H144   1.112       .  S
C138        H462   1.095       .  S
H140        C455   1.108       .  S
H142        C458   1.095       .  S
C145        C150   1.404       .  A
C145        C466   1.448   1_545  A
C145        H152   1.065       .  S
C146        C481   1.641   1_554  S
C146        C147   1.470       .  A
C146        C465   1.448       .  A
C147        C154   1.516       .  S
C147        C148   1.415       .  A
C148        C149   1.389       .  A
C148        H153   1.087       .  S
C149        C470   1.399       .  A
C150        C151   1.510       .  S
C150        C469   1.399   1_545  A
C151        H155   1.111       .  S
C151        H157   1.109       .  S
C151        H476   1.111       .  S
C154        H158   1.091       .  S
C154        H160   1.104       .  S
C154        H479   1.112       .  S
H156        C471   1.111       .  S
H159        C474   1.112       .  S
C161        C512   1.711       .  S
C161        C610   1.705       .  S
C161        C466   1.641   1_556  S
O162        V170   1.892       .  S
O162        C172   1.262       .  A
O163        V170   1.891       .  S
O163        C173   1.262       .  A
O164        V170   1.909       .  S
O164        C174   1.267       .  A
O165        V170   1.903       .  S
O165        C175   1.265       .  A
O166        V171   1.894       .  S
O166        C495   1.261       .  A
O167        V171   1.898       .  S
O167        C494   1.263   1_545  A
O168        V171   1.914       .  S
O168        C493   1.267       .  A
O169        V171   1.915       .  S
O169        C492   1.268   1_545  A
V170        V491   2.085       .  T
V171        V490   2.085   1_545  T
C172        O489   1.268       .  A
C172        C277   1.486       .  S
C173        O488   1.267       .  A
C173        C293   1.479       .  S
C174        O487   1.263       .  A
C174        C309   1.489       .  S
C175        O486   1.261       .  A
C175        C258   1.467       .  S
C176        C657   1.715       .  S
C176       C1152   1.748   1_544  S
C176        C581   1.620   1_554  S
C176        C434   1.669   1_545  S
C177        C656   1.715       .  S
C177        C245   1.663       .  S
O178        V186   1.901       .  S
O178        C188   1.267       .  A
O179        V186   1.909       .  S
O179        C189   1.265       .  A
O180        V186   1.878       .  S
O180        C190   1.260       .  A
O181        V186   1.900       .  S
O181        C191   1.264       .  A
O182        V187   1.908       .  S
O182        C191   1.268       .  A
O183        V187   1.896       .  S
O183        C190   1.262       .  A
O184        V187   1.897       .  S
O184        C189   1.267       .  A
O185        V187   1.897       .  S
O185        C188   1.263       .  A
V186        V187   2.082       .  T
C188        C210   1.490       .  S
C189        C229   1.501       .  S
C190        C242   1.466       .  S
C191        C194   1.502       .  S
C192        C481   1.711       .  S
C192       C1136   1.748   1_556  S
C192        C197   1.658       .  S
C193        C194   1.387       .  A
C193        C198   1.418       .  A
C193        H840   1.087   1_455  S
C194        C195   1.399       .  A
C195        C202   1.514       .  S
C195        C196   1.406       .  A
C196        C197   1.430       .  A
C196        H201   1.036       .  S
C197        C198   1.477       .  A
C198        C839   1.504   1_455  S
C199        C838   1.504       .  S
C199        H203   1.112       .  S
C199        H204   1.112       .  S
C199        H205   1.054       .  S
H200        C833   1.087       .  S
C202        H206   1.110       .  S
C202        H207   1.110       .  S
C202        H208   1.111       .  S
C209        C210   1.391       .  A
C209        C214   1.411       .  A
C209        H216   1.086       .  S
C210        C211   1.403       .  A
C211        C858   1.507   1_455  S
C211        C212   1.405       .  A
C212        C213   1.409       .  A
C212        H217   1.041   1_455  S
C213        C214   1.459       .  A
C214        C215   1.479       .  S
C215        H219   1.112       .  S
C215        H220   1.047       .  S
C215        H221   1.111       .  S
C218        C851   1.507       .  S
C218        H222   1.110       .  S
C218        H863   1.110       .  S
C218        H224   1.108       .  S
H223        C858   1.110       .  S
C225        C226   1.425       .  A
C225        C230   1.414       .  A
C225        H232   1.059       .  S
C226        C227   1.452       .  A
C227        C874   1.496   1_455  S
C227        C228   1.404       .  A
C228        C229   1.394       .  A
C228        H873   1.085   1_455  S
C229        C230   1.410       .  A
C230        C231   1.508       .  S
C231        H235   1.111       .  S
C231        H236   1.110       .  S
C231        H237   1.110       .  S
H233        C868   1.085       .  S
C234        C867   1.496       .  S
C234        H238   1.087       .  S
C234        H239   1.108       .  S
C234        H240   1.111       .  S
C241        C242   1.399       .  A
C241        C246   1.399       .  A
C241        H248   1.084   1_455  S
C242        C243   1.408       .  A
C243        C250   1.516       .  S
C243        C244   1.406       .  A
C244        C245   1.442       .  A
C244        H249   1.043       .  S
C245        C246   1.447       .  A
C246        C247   1.535       .  S
C247        H251   1.115       .  S
C250        H254   1.111       .  S
C250        H255   1.109       .  S
C250        H256   1.111       .  S
C257        C258   1.385       .  A
C257        C262   1.408       .  A
C257        H264   1.084       .  S
C258        C579   1.394       .  A
C259        C266   1.506   1_545  S
C259        C578   1.394       .  A
C259        C260   1.403       .  A
C260        C581   1.398       .  A
C260        H265   1.026   1_545  S
C261        C496   1.620   1_556  S
C261        C580   1.398       .  A
C261        C262   1.473       .  A
C262        C263   1.521   1_556  S
C263        H267   1.112       .  S
C263        H428   1.095       .  S
C266        H270   1.108   1_565  S
C266        H591   1.110       .  S
C266        H272   1.101       .  S
H268        C423   1.095       .  S
H271        C586   1.110       .  S
C273        C274   1.437       .  A
C273        C278   1.406       .  A
C273        H280   1.043       .  S
C274        C336   1.669       .  S
C274        C595   1.458       .  A
C275        C282   1.467       .  S
C275        C594   1.458   1_545  A
C275        C276   1.418       .  A
C276        C597   1.386   1_545  A
C276        H281   1.085       .  S
C277        C596   1.386       .  A
C277        C278   1.395       .  A
C278        C279   1.515       .  S
C279        H283   1.110       .  S
C279        H604   1.111       .  S
C279        H285   1.109       .  S
C282        H926   1.059       .  S
C282       H1247   1.113       .  S
C282        H288   1.101       .  S
H284        C599   1.111       .  S
H286        C922   1.059       .  S
H287       C1242   1.113       .  S
C289        C290   1.458       .  A
C289        C294   1.399       .  A
C289        H616   1.069       .  S
C290        C481   1.705       .  S
C290        C291   1.481       .  A
C291        C298   1.504       .  S
C291        C292   1.422       .  A
C292        C293   1.380       .  A
C292        H297   1.086       .  S
C293        C294   1.388       .  A
C294        C295   1.514       .  S
C295        H299   1.111       .  S
C295        H620   1.108       .  S
C295        H301   1.109       .  S
H296        C609   1.069       .  S
C298        H622   1.095       .  S
C298        H303   1.100       .  S
C298        H304   1.112       .  S
H300        C615   1.108       .  S
H302        C618   1.095       .  S
C305        C626   1.448   1_545  A
C305        C310   1.404       .  A
C305        H312   1.065       .  S
C306        C321   1.642       .  S
C306        C625   1.448       .  A
C306        C307   1.470       .  A
C307        C314   1.516       .  S
C307        C308   1.416       .  A
C308        C309   1.389       .  A
C308        H313   1.087       .  S
C309        C630   1.399       .  A
C310        C311   1.510       .  S
C310        C629   1.399   1_545  A
C311        H315   1.111       .  S
C311        H636   1.111       .  S
C311        H317   1.109       .  S
C314        H318   1.091       .  S
C314        H639   1.112       .  S
C314        H320   1.103       .  S
H316        C631   1.111       .  S
H319        C634   1.112       .  S
C321        C497   1.706       .  S
O322        V330   1.892       .  S
O322        C332   1.262       .  A
O323        V330   1.891       .  S
O323        C333   1.262   1_565  A
O324        V330   1.909       .  S
O324        C334   1.267       .  A
O325        V330   1.903       .  S
O325        C335   1.265   1_565  A
O326        V331   1.894       .  S
O327        V331   1.898       .  S
O328        V331   1.914       .  S
O329        V331   1.915       .  S
C332        C437   1.486       .  S
C333        C453   1.480       .  S
C334        C469   1.489       .  S
C335        C418   1.468       .  S
C336       C1137   1.715       .  S
C336        C672   1.748       .  S
C337        C481   1.706   1_554  S
C337       C1136   1.715       .  S
C337        C546   1.617   1_554  S
C337        C405   1.664       .  S
O338        V346   1.901       .  S
O338        C348   1.267       .  A
O339        V346   1.910       .  S
O339        C349   1.265       .  A
O340        V346   1.878       .  S
O340        C350   1.260       .  A
O341        V346   1.900       .  S
O341        C351   1.264       .  A
O342        V347   1.908       .  S
O342        C351   1.268       .  A
O343        V347   1.896       .  S
O343        C350   1.262       .  A
O344        V347   1.897       .  S
O344        C349   1.267       .  A
O345        V347   1.897       .  S
O345        C348   1.263       .  A
V346        V347   2.082       .  T
C348        C370   1.490       .  S
C349        C389   1.501       .  S
C350        C402   1.466       .  S
C351        C354   1.502       .  S
C352        C656   1.748   1_565  S
C352        C357   1.658       .  S
C352        C533   1.619       .  S
C353        C354   1.387       .  A
C353        C358   1.418       .  A
C353       H1000   1.087   1_455  S
C354        C355   1.399       .  A
C355        C362   1.514       .  S
C355        C356   1.406       .  A
C356        C357   1.430       .  A
C356        H361   1.036       .  S
C357        C358   1.476       .  A
C358        C999   1.504   1_455  S
C359        C998   1.504       .  S
C359        H363   1.112       .  S
C359        H364   1.112       .  S
C359        H365   1.055       .  S
H360        C993   1.087       .  S
C362        H366   1.110       .  S
C362        H367   1.110       .  S
C362        H368   1.111       .  S
C369        C370   1.391       .  A
C369        C374   1.411       .  A
C369        H376   1.086       .  S
C370        C371   1.403       .  A
C371       C1018   1.507   1_455  S
C371        C372   1.405       .  A
C372        C373   1.409       .  A
C372        H377   1.041   1_455  S
C373        C512   1.619   1_554  S
C373        C374   1.459       .  A
C374        C375   1.479       .  S
C375        H379   1.112       .  S
C375        H380   1.047       .  S
C375        H381   1.111       .  S
C378       C1011   1.507       .  S
C378        H382   1.110       .  S
C378       H1023   1.110       .  S
C378        H384   1.108       .  S
H383       C1018   1.110       .  S
C385        C386   1.425       .  A
C385        C390   1.414       .  A
C385        H392   1.059       .  S
C386        C497   1.617       .  S
C386        C387   1.453       .  A
C387       C1034   1.496   1_455  S
C387        C388   1.404       .  A
C388        C389   1.394       .  A
C388       H1033   1.085   1_455  S
C389        C390   1.410       .  A
C390        C391   1.508       .  S
C391        H395   1.111       .  S
C391        H396   1.110       .  S
C391        H397   1.110       .  S
H393       C1028   1.085       .  S
C394       C1027   1.496       .  S
C394        H398   1.087       .  S
C394        H399   1.108       .  S
C394        H400   1.111       .  S
C401        C402   1.399       .  A
C401        C406   1.399       .  A
C401        H408   1.084   1_455  S
C402        C403   1.408       .  A
C403        C410   1.516       .  S
C403        C404   1.406       .  A
C404        C405   1.442       .  A
C404        H409   1.043       .  S
C405        C406   1.447       .  A
C406        C407   1.535       .  S
C407        H411   1.115       .  S
C407        H572   1.100   1_554  S
C407        H573   1.107       .  S
C410        H414   1.111       .  S
C410        H415   1.109       .  S
C410        H416   1.111       .  S
H412        C567   1.100       .  S
H413        C567   1.107       .  S
C417        C418   1.385       .  A
C417        C422   1.408       .  A
C417        H424   1.084       .  S
C419        C426   1.506       .  S
C419        C420   1.403       .  A
C420        H425   1.026       .  S
C421        C422   1.473       .  A
C422        C423   1.521       .  S
C423        H427   1.112       .  S
C423        H589   1.108       .  S
C426        H430   1.108       .  S
C426        H432   1.101       .  S
H429        C583   1.108       .  S
C433        C434   1.438       .  A
C433        C438   1.407       .  A
C433        H440   1.042       .  S
C435        C442   1.467       .  S
C435        C436   1.418       .  A
C436        H441   1.085       .  S
C437        C438   1.395       .  A
C438        C439   1.515       .  S
C439        H443   1.110       .  S
C439        H445   1.109       .  S
C442       H1086   1.058       .  S
C442        H767   1.113       .  S
C442        H448   1.101       .  S
H446       C1082   1.058       .  S
H447        C762   1.113       .  S
C449        C450   1.458       .  A
C449        C454   1.399       .  A
C450        C451   1.481   1_565  A
C451        C458   1.504       .  S
C451        C452   1.422       .  A
C452        C453   1.380       .  A
C452        H457   1.086       .  S
C453        C454   1.388   1_545  A
C454        C455   1.514       .  S
C455        H459   1.111       .  S
C455        H461   1.109       .  S
C458        H463   1.100   1_545  S
C458        H464   1.112       .  S
C465        C470   1.404       .  A
C465        H472   1.065       .  S
C466        C467   1.470       .  A
C467        C474   1.516       .  S
C467        C468   1.415       .  A
C468        C469   1.389       .  A
C468        H473   1.087       .  S
C470        C471   1.510       .  S
C471        H475   1.111       .  S
C471        H477   1.109       .  S
C474        H478   1.091       .  S
C474        H480   1.104       .  S
O482        V490   1.892       .  S
O482        C492   1.262       .  A
O483        V490   1.891       .  S
O483        C493   1.262   1_565  A
O484        V490   1.909       .  S
O484        C494   1.267       .  A
O485        V490   1.903       .  S
O485        C495   1.265   1_565  A
O486        V491   1.894       .  S
O487        V491   1.898       .  S
O488        V491   1.914       .  S
O489        V491   1.915       .  S
C492        C597   1.486       .  S
C493        C613   1.479       .  S
C494        C629   1.489       .  S
C495        C578   1.467       .  S
C496        C977   1.715       .  S
C496        C832   1.748   1_554  S
C497        C976   1.715       .  S
C497        C565   1.663       .  S
O498        V506   1.901       .  S
O498        C508   1.267       .  A
O499        V506   1.909       .  S
O499        C509   1.265       .  A
O500        V506   1.878       .  S
O500        C510   1.260       .  A
O501        V506   1.900       .  S
O501        C511   1.264       .  A
O502        V507   1.908       .  S
O502        C511   1.268       .  A
O503        V507   1.896       .  S
O503        C510   1.262       .  A
O504        V507   1.897       .  S
O504        C509   1.267       .  A
O505        V507   1.897       .  S
O505        C508   1.263       .  A
V506        V507   2.082       .  T
C508        C530   1.490       .  S
C509        C549   1.501       .  S
C510        C562   1.466       .  S
C511        C514   1.502       .  S
C512        C816   1.748   1_566  S
C512        C517   1.658       .  S
C513        C514   1.387       .  A
C513        C518   1.418       .  A
C513       H1160   1.087   1_455  S
C514        C515   1.399       .  A
C515        C522   1.514       .  S
C515        C516   1.406       .  A
C516        C517   1.430       .  A
C516        H521   1.036       .  S
C517        C518   1.477       .  A
C518       C1159   1.504   1_455  S
C519       C1158   1.504       .  S
C519        H523   1.112       .  S
C519        H524   1.112       .  S
C519        H525   1.053       .  S
H520       C1153   1.087       .  S
C522        H526   1.110       .  S
C522        H527   1.110       .  S
C522        H528   1.111       .  S
C529        C530   1.391       .  A
C529        C534   1.411       .  A
C529        H536   1.086       .  S
C530        C531   1.403       .  A
C531       C1178   1.507   1_455  S
C531        C532   1.405       .  A
C532        C533   1.409       .  A
C532        H537   1.041   1_455  S
C533        C534   1.459       .  A
C534        C535   1.479       .  S
C535        H539   1.112       .  S
C535        H540   1.047       .  S
C535        H541   1.111       .  S
C538       C1171   1.507       .  S
C538        H542   1.110       .  S
C538       H1183   1.110       .  S
C538        H544   1.108       .  S
H543       C1178   1.110       .  S
C545        C546   1.425       .  A
C545        C550   1.414       .  A
C545        H552   1.059       .  S
C546        C547   1.452       .  A
C547       C1194   1.496   1_455  S
C547        C548   1.404       .  A
C548        C549   1.394       .  A
C548       H1193   1.085   1_455  S
C549        C550   1.410       .  A
C550        C551   1.508       .  S
C551        H555   1.111       .  S
C551        H556   1.110       .  S
C551        H557   1.110       .  S
H553       C1188   1.085       .  S
C554       C1187   1.496       .  S
C554        H558   1.087       .  S
C554        H559   1.108       .  S
C554        H560   1.111       .  S
C561        C562   1.399       .  A
C561        C566   1.399       .  A
C561        H568   1.084   1_455  S
C562        C563   1.408       .  A
C563        C570   1.516       .  S
C563        C564   1.406       .  A
C564        C565   1.442       .  A
C564        H569   1.043       .  S
C565        C566   1.447       .  A
C566        C567   1.535       .  S
C567        H571   1.115       .  S
C570        H574   1.111       .  S
C570        H575   1.109       .  S
C570        H576   1.111       .  S
C577        C578   1.385       .  A
C577        C582   1.408       .  A
C577        H584   1.084       .  S
C579        C586   1.506       .  S
C579        C580   1.403       .  A
C580        H585   1.026       .  S
C581        C582   1.473       .  A
C582        C583   1.521   1_556  S
C583        H587   1.112       .  S
C586        H590   1.108       .  S
C586        H592   1.101       .  S
C593        C594   1.437       .  A
C593        C598   1.406       .  A
C593        H600   1.043       .  S
C595        C602   1.467       .  S
C595        C596   1.418       .  A
C596        H601   1.085       .  S
C597        C598   1.395       .  A
C598        C599   1.515       .  S
C599        H603   1.110       .  S
C599        H605   1.109       .  S
C602       H1246   1.059       .  S
C602        H927   1.113       .  S
C602        H608   1.101       .  S
H606       C1242   1.059       .  S
H607        C922   1.113       .  S
C609        C610   1.458       .  A
C609        C614   1.399       .  A
C610        C611   1.481   1_565  A
C611        C618   1.504       .  S
C611        C612   1.422       .  A
C612        C613   1.380       .  A
C612        H617   1.086       .  S
C613        C614   1.388   1_545  A
C614        C615   1.514       .  S
C615        H619   1.111       .  S
C615        H621   1.109       .  S
C618        H623   1.100   1_545  S
C618        H624   1.112       .  S
C625        C630   1.404       .  A
C625        H632   1.065       .  S
C626        C627   1.470       .  A
C627        C634   1.516       .  S
C627        C628   1.416       .  A
C628        C629   1.389       .  A
C628        H633   1.087       .  S
C630        C631   1.510       .  S
C631        H635   1.111       .  S
C631        H637   1.109       .  S
C634        H638   1.091       .  S
C634        H640   1.103       .  S
C641        C817   1.706   1_565  S
C641        C992   1.711       .  S
C641       C1090   1.705       .  S
C641       C1266   1.642       .  S
O642        V650   1.892       .  S
O642        C652   1.262       .  A
O643        V650   1.891       .  S
O643        C653   1.262       .  A
O644        V650   1.908       .  S
O644        C654   1.267       .  A
O645        V650   1.903       .  S
O645        C655   1.265       .  A
O646        V651   1.894       .  S
O646        C975   1.261       .  A
O647        V651   1.898       .  S
O647        C974   1.263   1_545  A
O648        V651   1.914       .  S
O648        C973   1.267       .  A
O649        V651   1.915       .  S
O649        C972   1.268   1_545  A
V650        V971   2.084       .  T
V651        V970   2.084   1_545  T
C652        O969   1.268       .  A
C652        C757   1.486       .  S
C653        O968   1.267       .  A
C653        C773   1.480       .  S
C654        O967   1.263       .  A
C654        C789   1.489       .  S
C655        O966   1.261       .  A
C655        C738   1.468       .  S
C656       C1061   1.620   1_455  S
C656       C1234   1.669   1_445  S
C657        C801   1.706   1_544  S
C657        C866   1.617   1_554  S
C657        C725   1.664       .  S
O658        V666   1.901       .  S
O658        C668   1.267       .  A
O659        V666   1.910       .  S
O659        C669   1.265       .  A
O660        V666   1.878       .  S
O660        C670   1.260       .  A
O661        V666   1.900       .  S
O661        C671   1.264       .  A
O662        V667   1.908       .  S
O662        C671   1.268       .  A
O663        V667   1.896       .  S
O663        C670   1.262       .  A
O664        V667   1.897       .  S
O664        C669   1.267       .  A
O665        V667   1.897       .  S
O665        C668   1.263       .  A
V666        V667   2.082       .  T
C668        C690   1.490       .  S
C669        C709   1.501       .  S
C670        C722   1.466       .  S
C671        C674   1.502       .  S
C672        C961   1.711       .  S
C672        C677   1.658       .  S
C672        C853   1.619       .  S
C673        C674   1.387       .  A
C673        C678   1.418       .  A
C674        C675   1.399       .  A
C675        C682   1.514       .  S
C675        C676   1.406       .  A
C676        C677   1.430       .  A
C676        H681   1.036       .  S
C677        C678   1.476       .  A
C679        H683   1.112       .  S
C679        H684   1.112       .  S
C679        H685   1.055       .  S
C682        H686   1.110       .  S
C682        H687   1.110       .  S
C682        H688   1.111       .  S
C689        C690   1.391       .  A
C689        C694   1.411       .  A
C689        H696   1.086       .  S
C690        C691   1.403       .  A
C691        C692   1.405       .  A
C692        C693   1.409       .  A
C692        H697   1.041       .  S
C693        C832   1.619   1_554  S
C693        C694   1.459       .  A
C694        C695   1.479       .  S
C695        H699   1.112       .  S
C695        H700   1.047       .  S
C695        H701   1.111       .  S
C698        H702   1.110       .  S
C698        H704   1.108       .  S
C705        C706   1.425       .  A
C705        C710   1.414       .  A
C705        H712   1.059       .  S
C706        C817   1.617       .  S
C706        C707   1.453       .  A
C707        C708   1.404       .  A
C708        C709   1.394       .  A
C709        C710   1.410       .  A
C710        C711   1.508       .  S
C711        H715   1.111       .  S
C711        H716   1.110       .  S
C711        H717   1.110       .  S
C714        H718   1.087       .  S
C714        H719   1.108       .  S
C714        H720   1.111       .  S
C721        C722   1.399       .  A
C721        C726   1.399       .  A
C721        H728   1.084       .  S
C722        C723   1.408       .  A
C723        C730   1.516       .  S
C723        C724   1.406       .  A
C724        C725   1.442       .  A
C724        H729   1.043       .  S
C725        C726   1.447       .  A
C726        C727   1.535       .  S
C727        H731   1.115       .  S
C727        H892   1.100   1_554  S
C727        H893   1.107       .  S
C730        H734   1.111       .  S
C730        H735   1.109       .  S
C730        H736   1.111       .  S
H732        C887   1.100       .  S
H733        C887   1.107       .  S
C737        C738   1.385       .  A
C737        C742   1.408       .  A
C737        H744   1.084       .  S
C738       C1059   1.394       .  A
C739        C746   1.506   1_545  S
C739       C1058   1.394       .  A
C739        C740   1.403       .  A
C740       C1061   1.398       .  A
C740        H745   1.026   1_645  S
C741        C976   1.620   1_655  S
C741       C1060   1.398       .  A
C741        C742   1.473       .  A
C742        C743   1.521       .  S
C743        H747   1.112       .  S
C743       H1228   1.095       .  S
C743        H909   1.108       .  S
C746        H750   1.108   1_565  S
C746       H1071   1.110       .  S
C746        H752   1.101       .  S
H748       C1223   1.095       .  S
H749        C903   1.108       .  S
H751       C1066   1.110       .  S
C753        C754   1.438       .  A
C753        C758   1.407       .  A
C753        H760   1.042       .  S
C754       C1136   1.669   1_655  S
C754       C1075   1.457       .  A
C755        C762   1.467   1_655  S
C755       C1074   1.457   1_545  A
C755        C756   1.418       .  A
C756       C1077   1.386   1_545  A
C756        H761   1.085       .  S
C757       C1076   1.386       .  A
C757        C758   1.395       .  A
C758        C759   1.515       .  S
C759        H763   1.110       .  S
C759       H1084   1.111       .  S
C759        H765   1.109       .  S
C762        H768   1.101       .  S
H764       C1079   1.111       .  S
C769        C770   1.458       .  A
C769        C774   1.399       .  A
C769       H1096   1.068       .  S
C770        C961   1.705       .  S
C770        C771   1.481       .  A
C771        C778   1.504       .  S
C771        C772   1.422       .  A
C772        C773   1.380       .  A
C772        H777   1.086       .  S
C773        C774   1.388       .  A
C774        C775   1.514       .  S
C775        H779   1.111       .  S
C775       H1100   1.108       .  S
C775        H781   1.109       .  S
H776       C1089   1.068       .  S
C778       H1102   1.095       .  S
C778        H783   1.100       .  S
C778        H784   1.112       .  S
H780       C1095   1.108       .  S
H782       C1098   1.095       .  S
C785       C1106   1.448   1_545  A
C785        C790   1.404       .  A
C785        H792   1.065       .  S
C786       C1121   1.641   1_554  S
C786       C1105   1.448       .  A
C786        C787   1.470       .  A
C787        C794   1.516       .  S
C787        C788   1.415       .  A
C788        C789   1.389       .  A
C788        H793   1.087       .  S
C789       C1110   1.399       .  A
C790        C791   1.510       .  S
C790       C1109   1.399   1_545  A
C791        H795   1.111       .  S
C791       H1116   1.111       .  S
C791        H797   1.109       .  S
C794        H798   1.091       .  S
C794       H1119   1.112       .  S
C794        H800   1.104       .  S
H796       C1111   1.111       .  S
H799       C1114   1.112       .  S
C801       C1152   1.711       .  S
C801       C1250   1.705       .  S
C801       C1106   1.641   1_556  S
O802        V810   1.892       .  S
O802        C812   1.262       .  A
O803        V810   1.891       .  S
O803        C813   1.262       .  A
O804        V810   1.909       .  S
O804        C814   1.267       .  A
O805        V810   1.903       .  S
O805        C815   1.265       .  A
O806        V811   1.894       .  S
O806       C1135   1.261       .  A
O807        V811   1.898       .  S
O807       C1134   1.263   1_545  A
O808        V811   1.914       .  S
O808       C1133   1.267       .  A
O809        V811   1.915       .  S
O809       C1132   1.268   1_545  A
V810       V1131   2.085       .  T
V811       V1130   2.085   1_545  T
C812       O1129   1.268       .  A
C812        C917   1.486       .  S
C813       O1128   1.267       .  A
C813        C933   1.479       .  S
C814       O1127   1.263       .  A
C814        C949   1.489       .  S
C815       O1126   1.261       .  A
C815        C898   1.467       .  S
C816       C1221   1.620   1_454  S
C816       C1074   1.669   1_445  S
C817        C885   1.663       .  S
O818        V826   1.901       .  S
O818        C828   1.267       .  A
O819        V826   1.909       .  S
O819        C829   1.265       .  A
O820        V826   1.878       .  S
O820        C830   1.260       .  A
O821        V826   1.900       .  S
O821        C831   1.264       .  A
O822        V827   1.908       .  S
O822        C831   1.268       .  A
O823        V827   1.896       .  S
O823        C830   1.262       .  A
O824        V827   1.897       .  S
O824        C829   1.267       .  A
O825        V827   1.897       .  S
O825        C828   1.263       .  A
V826        V827   2.082       .  T
C828        C850   1.490       .  S
C829        C869   1.501       .  S
C830        C882   1.466       .  S
C831        C834   1.502       .  S
C832       C1121   1.711       .  S
C832        C837   1.658       .  S
C833        C834   1.387       .  A
C833        C838   1.418       .  A
C834        C835   1.399       .  A
C835        C842   1.514       .  S
C835        C836   1.406       .  A
C836        C837   1.430       .  A
C836        H841   1.036       .  S
C837        C838   1.477       .  A
C839        H843   1.112       .  S
C839        H844   1.112       .  S
C839        H845   1.054       .  S
C842        H846   1.110       .  S
C842        H847   1.110       .  S
C842        H848   1.111       .  S
C849        C850   1.391       .  A
C849        C854   1.411       .  A
C849        H856   1.086       .  S
C850        C851   1.403       .  A
C851        C852   1.405       .  A
C852        C853   1.409       .  A
C852        H857   1.041       .  S
C853        C854   1.459       .  A
C854        C855   1.479       .  S
C855        H859   1.112       .  S
C855        H860   1.047       .  S
C855        H861   1.111       .  S
C858        H862   1.110       .  S
C858        H864   1.108       .  S
C865        C866   1.425       .  A
C865        C870   1.414       .  A
C865        H872   1.059       .  S
C866        C867   1.452       .  A
C867        C868   1.404       .  A
C868        C869   1.394       .  A
C869        C870   1.410       .  A
C870        C871   1.508       .  S
C871        H875   1.111       .  S
C871        H876   1.110       .  S
C871        H877   1.110       .  S
C874        H878   1.087       .  S
C874        H879   1.108       .  S
C874        H880   1.111       .  S
C881        C882   1.399       .  A
C881        C886   1.399       .  A
C881        H888   1.084       .  S
C882        C883   1.408       .  A
C883        C890   1.516       .  S
C883        C884   1.406       .  A
C884        C885   1.442       .  A
C884        H889   1.043       .  S
C885        C886   1.447       .  A
C886        C887   1.535       .  S
C887        H891   1.115       .  S
C890        H894   1.111       .  S
C890        H895   1.109       .  S
C890        H896   1.111       .  S
C897        C898   1.385       .  A
C897        C902   1.408       .  A
C897        H904   1.084       .  S
C898       C1219   1.394       .  A
C899        C906   1.506   1_545  S
C899       C1218   1.394       .  A
C899        C900   1.403       .  A
C900       C1221   1.398       .  A
C900        H905   1.026   1_645  S
C901       C1136   1.620   1_656  S
C901       C1220   1.398       .  A
C901        C902   1.473       .  A
C902        C903   1.521   1_556  S
C903        H907   1.112       .  S
C903       H1068   1.095       .  S
C906        H910   1.108   1_565  S
C906       H1231   1.110       .  S
C906        H912   1.101       .  S
H908       C1063   1.095       .  S
H911       C1226   1.110       .  S
C913        C914   1.437       .  A
C913        C918   1.406       .  A
C913        H920   1.043       .  S
C914        C976   1.669   1_655  S
C914       C1235   1.458       .  A
C915        C922   1.467   1_655  S
C915       C1234   1.458   1_545  A
C915        C916   1.418       .  A
C916       C1237   1.386   1_545  A
C916        H921   1.085       .  S
C917       C1236   1.386       .  A
C917        C918   1.395       .  A
C918        C919   1.515       .  S
C919        H923   1.110       .  S
C919       H1244   1.111       .  S
C919        H925   1.109       .  S
C922        H928   1.101       .  S
H924       C1239   1.111       .  S
C929        C930   1.458       .  A
C929        C934   1.399       .  A
C929       H1256   1.069       .  S
C930       C1121   1.705       .  S
C930        C931   1.481       .  A
C931        C938   1.504       .  S
C931        C932   1.422       .  A
C932        C933   1.380       .  A
C932        H937   1.086       .  S
C933        C934   1.388       .  A
C934        C935   1.514       .  S
C935        H939   1.111       .  S
C935       H1260   1.108       .  S
C935        H941   1.109       .  S
H936       C1249   1.069       .  S
C938       H1262   1.095       .  S
C938        H943   1.100       .  S
C938        H944   1.112       .  S
H940       C1255   1.108       .  S
H942       C1258   1.095       .  S
C945       C1266   1.448   1_545  A
C945        C950   1.404       .  A
C945        H952   1.065       .  S
C946        C961   1.642       .  S
C946       C1265   1.448       .  A
C946        C947   1.470       .  A
C947        C954   1.516       .  S
C947        C948   1.416       .  A
C948        C949   1.389       .  A
C948        H953   1.087       .  S
C949       C1270   1.399       .  A
C950        C951   1.510       .  S
C950       C1269   1.399   1_545  A
C951        H955   1.111       .  S
C951       H1276   1.111       .  S
C951        H957   1.109       .  S
C954        H958   1.091       .  S
C954       H1279   1.112       .  S
C954        H960   1.103       .  S
H956       C1271   1.111       .  S
H959       C1274   1.112       .  S
C961       C1137   1.706       .  S
O962        V970   1.892       .  S
O962        C972   1.262       .  A
O963        V970   1.891       .  S
O963        C973   1.262   1_565  A
O964        V970   1.908       .  S
O964        C974   1.267       .  A
O965        V970   1.903       .  S
O965        C975   1.265   1_565  A
O966        V971   1.894       .  S
O967        V971   1.898       .  S
O968        V971   1.914       .  S
O969        V971   1.915       .  S
C972       C1077   1.486       .  S
C973       C1093   1.480       .  S
C974       C1109   1.489       .  S
C975       C1058   1.468       .  S
C977       C1121   1.706   1_554  S
C977       C1186   1.617   1_554  S
C977       C1045   1.664       .  S
O978        V986   1.901       .  S
O978        C988   1.267       .  A
O979        V986   1.910       .  S
O979        C989   1.265       .  A
O980        V986   1.878       .  S
O980        C990   1.260       .  A
O981        V986   1.900       .  S
O981        C991   1.264       .  A
O982        V987   1.908       .  S
O982        C991   1.268       .  A
O983        V987   1.896       .  S
O983        C990   1.262       .  A
O984        V987   1.897       .  S
O984        C989   1.267       .  A
O985        V987   1.897       .  S
O985        C988   1.263       .  A
V986        V987   2.082       .  T
C988       C1010   1.490       .  S
C989       C1029   1.501       .  S
C990       C1042   1.466       .  S
C991        C994   1.502       .  S
C992        C997   1.658       .  S
C992       C1173   1.619       .  S
C993        C994   1.387       .  A
C993        C998   1.418       .  A
C994        C995   1.399       .  A
C995       C1002   1.514       .  S
C995        C996   1.406       .  A
C996        C997   1.430       .  A
C996       H1001   1.036       .  S
C997        C998   1.476       .  A
C999       H1003   1.112       .  S
C999       H1004   1.112       .  S
C999       H1005   1.055       .  S
C1002      H1006   1.110       .  S
C1002      H1007   1.110       .  S
C1002      H1008   1.111       .  S
C1009      C1010   1.391       .  A
C1009      C1014   1.411       .  A
C1009      H1016   1.086       .  S
C1010      C1011   1.403       .  A
C1011      C1012   1.405       .  A
C1012      C1013   1.409       .  A
C1012      H1017   1.041       .  S
C1013      C1152   1.619   1_554  S
C1013      C1014   1.459       .  A
C1014      C1015   1.479       .  S
C1015      H1019   1.112       .  S
C1015      H1020   1.047       .  S
C1015      H1021   1.111       .  S
C1018      H1022   1.110       .  S
C1018      H1024   1.108       .  S
C1025      C1026   1.425       .  A
C1025      C1030   1.414       .  A
C1025      H1032   1.059       .  S
C1026      C1137   1.617       .  S
C1026      C1027   1.453       .  A
C1027      C1028   1.404       .  A
C1028      C1029   1.394       .  A
C1029      C1030   1.410       .  A
C1030      C1031   1.508       .  S
C1031      H1035   1.111       .  S
C1031      H1036   1.110       .  S
C1031      H1037   1.110       .  S
C1034      H1038   1.087       .  S
C1034      H1039   1.108       .  S
C1034      H1040   1.111       .  S
C1041      C1042   1.399       .  A
C1041      C1046   1.399       .  A
C1041      H1048   1.084       .  S
C1042      C1043   1.408       .  A
C1043      C1050   1.516       .  S
C1043      C1044   1.406       .  A
C1044      C1045   1.442       .  A
C1044      H1049   1.043       .  S
C1045      C1046   1.447       .  A
C1046      C1047   1.535       .  S
C1047      H1051   1.115       .  S
C1047      H1212   1.100   1_554  S
C1047      H1213   1.107       .  S
C1050      H1054   1.111       .  S
C1050      H1055   1.109       .  S
C1050      H1056   1.111       .  S
H1052      C1207   1.100       .  S
H1053      C1207   1.107       .  S
C1057      C1058   1.385       .  A
C1057      C1062   1.408       .  A
C1057      H1064   1.084       .  S
C1059      C1066   1.506       .  S
C1059      C1060   1.403       .  A
C1060      H1065   1.026   1_655  S
C1061      C1062   1.473       .  A
C1062      C1063   1.521       .  S
C1063      H1067   1.112       .  S
C1063      H1229   1.108       .  S
C1066      H1070   1.108       .  S
C1066      H1072   1.101       .  S
H1069      C1223   1.108       .  S
C1073      C1074   1.438       .  A
C1073      C1078   1.407       .  A
C1073      H1080   1.042       .  S
C1075      C1082   1.467   1_655  S
C1075      C1076   1.418       .  A
C1076      H1081   1.085       .  S
C1077      C1078   1.395       .  A
C1078      C1079   1.515       .  S
C1079      H1083   1.110       .  S
C1079      H1085   1.109       .  S
C1082      H1088   1.101       .  S
C1089      C1090   1.458       .  A
C1089      C1094   1.399       .  A
C1090      C1091   1.481   1_565  A
C1091      C1098   1.504       .  S
C1091      C1092   1.422       .  A
C1092      C1093   1.380       .  A
C1092      H1097   1.086       .  S
C1093      C1094   1.388   1_545  A
C1094      C1095   1.514       .  S
C1095      H1099   1.111       .  S
C1095      H1101   1.109       .  S
C1098      H1103   1.100   1_545  S
C1098      H1104   1.112       .  S
C1105      C1110   1.404       .  A
C1105      H1112   1.065       .  S
C1106      C1107   1.470       .  A
C1107      C1114   1.516       .  S
C1107      C1108   1.415       .  A
C1108      C1109   1.389       .  A
C1108      H1113   1.087       .  S
C1110      C1111   1.510       .  S
C1111      H1115   1.111       .  S
C1111      H1117   1.109       .  S
C1114      H1118   1.091       .  S
C1114      H1120   1.104       .  S
O1122      V1130   1.892       .  S
O1122      C1132   1.262       .  A
O1123      V1130   1.891       .  S
O1123      C1133   1.262   1_565  A
O1124      V1130   1.909       .  S
O1124      C1134   1.267       .  A
O1125      V1130   1.903       .  S
O1125      C1135   1.265   1_565  A
O1126      V1131   1.894       .  S
O1127      V1131   1.898       .  S
O1128      V1131   1.914       .  S
O1129      V1131   1.915       .  S
C1132      C1237   1.486       .  S
C1133      C1253   1.479       .  S
C1134      C1269   1.489       .  S
C1135      C1218   1.467       .  S
C1137      C1205   1.663       .  S
O1138      V1146   1.901       .  S
O1138      C1148   1.267       .  A
O1139      V1146   1.909       .  S
O1139      C1149   1.265       .  A
O1140      V1146   1.878       .  S
O1140      C1150   1.260       .  A
O1141      V1146   1.900       .  S
O1141      C1151   1.264       .  A
O1142      V1147   1.908       .  S
O1142      C1151   1.268       .  A
O1143      V1147   1.896       .  S
O1143      C1150   1.262       .  A
O1144      V1147   1.897       .  S
O1144      C1149   1.267       .  A
O1145      V1147   1.897       .  S
O1145      C1148   1.263       .  A
V1146      V1147   2.082       .  T
C1148      C1170   1.490       .  S
C1149      C1189   1.501       .  S
C1150      C1202   1.466       .  S
C1151      C1154   1.502       .  S
C1152      C1157   1.658       .  S
C1153      C1154   1.387       .  A
C1153      C1158   1.418       .  A
C1154      C1155   1.399       .  A
C1155      C1162   1.514       .  S
C1155      C1156   1.406       .  A
C1156      C1157   1.430       .  A
C1156      H1161   1.036       .  S
C1157      C1158   1.477       .  A
C1159      H1163   1.112       .  S
C1159      H1164   1.112       .  S
C1159      H1165   1.053       .  S
C1162      H1166   1.110       .  S
C1162      H1167   1.110       .  S
C1162      H1168   1.111       .  S
C1169      C1170   1.391       .  A
C1169      C1174   1.411       .  A
C1169      H1176   1.086       .  S
C1170      C1171   1.403       .  A
C1171      C1172   1.405       .  A
C1172      C1173   1.409       .  A
C1172      H1177   1.041       .  S
C1173      C1174   1.459       .  A
C1174      C1175   1.479       .  S
C1175      H1179   1.112       .  S
C1175      H1180   1.047       .  S
C1175      H1181   1.111       .  S
C1178      H1182   1.110       .  S
C1178      H1184   1.108       .  S
C1185      C1186   1.425       .  A
C1185      C1190   1.414       .  A
C1185      H1192   1.059       .  S
C1186      C1187   1.452       .  A
C1187      C1188   1.404       .  A
C1188      C1189   1.394       .  A
C1189      C1190   1.410       .  A
C1190      C1191   1.508       .  S
C1191      H1195   1.111       .  S
C1191      H1196   1.110       .  S
C1191      H1197   1.110       .  S
C1194      H1198   1.087       .  S
C1194      H1199   1.108       .  S
C1194      H1200   1.111       .  S
C1201      C1202   1.399       .  A
C1201      C1206   1.399       .  A
C1201      H1208   1.084       .  S
C1202      C1203   1.408       .  A
C1203      C1210   1.516       .  S
C1203      C1204   1.406       .  A
C1204      C1205   1.442       .  A
C1204      H1209   1.043       .  S
C1205      C1206   1.447       .  A
C1206      C1207   1.535       .  S
C1207      H1211   1.115       .  S
C1210      H1214   1.111       .  S
C1210      H1215   1.109       .  S
C1210      H1216   1.111       .  S
C1217      C1218   1.385       .  A
C1217      C1222   1.408       .  A
C1217      H1224   1.084       .  S
C1219      C1226   1.506       .  S
C1219      C1220   1.403       .  A
C1220      H1225   1.026   1_655  S
C1221      C1222   1.473       .  A
C1222      C1223   1.521   1_556  S
C1223      H1227   1.112       .  S
C1226      H1230   1.108       .  S
C1226      H1232   1.101       .  S
C1233      C1234   1.437       .  A
C1233      C1238   1.406       .  A
C1233      H1240   1.043       .  S
C1235      C1242   1.467   1_655  S
C1235      C1236   1.418       .  A
C1236      H1241   1.085       .  S
C1237      C1238   1.395       .  A
C1238      C1239   1.515       .  S
C1239      H1243   1.110       .  S
C1239      H1245   1.109       .  S
C1242      H1248   1.101       .  S
C1249      C1250   1.458       .  A
C1249      C1254   1.399       .  A
C1250      C1251   1.481   1_565  A
C1251      C1258   1.504       .  S
C1251      C1252   1.422       .  A
C1252      C1253   1.380       .  A
C1252      H1257   1.086       .  S
C1253      C1254   1.388   1_545  A
C1254      C1255   1.514       .  S
C1255      H1259   1.111       .  S
C1255      H1261   1.109       .  S
C1258      H1263   1.100   1_545  S
C1258      H1264   1.112       .  S
C1265      C1270   1.404       .  A
C1265      H1272   1.065       .  S
C1266      C1267   1.470       .  A
C1267      C1274   1.516       .  S
C1267      C1268   1.416       .  A
C1268      C1269   1.389       .  A
C1268      H1273   1.087       .  S
C1270      C1271   1.510       .  S
C1271      H1275   1.111       .  S
C1271      H1277   1.109       .  S
C1274      H1278   1.091       .  S
C1274      H1280   1.103       .  S
