geometry optimzed in LAMMPS
_audit_creation_date              2020-11-30 
_audit_creation_method            'lammps2cif' 
_symmetry_space_group_name_H-M    'P1' 
_symmetry_Int_Tables_number       1 
_symmetry_cell_setting            triclinic 
loop_ 
_symmetry_equiv_pos_as_xyz 
  x,y,z 
_cell_length_a                    59.28451071 
_cell_length_b                    59.00374548611631 
_cell_length_c                    42.556608021333034 
_cell_angle_alpha                 86.81899610800859 
_cell_angle_beta                  91.11921871342398 
_cell_angle_gamma                 119.83431815362567 
loop_ 
_atom_site_label 
_atom_site_type_symbol 
_atom_site_fract_x 
_atom_site_fract_y 
_atom_site_fract_z 
_atom_site_charge 
N1          N  0.41974183  0.19669696  0.14817048    -0.02100
C2          C  0.40578778  0.20939585  0.14804058     0.00500
C3          C  0.38389904  0.19690288  0.12968158    -0.22400
C4          C  0.38478467  0.17665157  0.11682681    -0.22600
C5          C  0.40713806  0.17729752  0.12778871     0.00400
H6          H  0.37069622  0.20395475  0.12285303     0.14200
H7          H  0.37228758  0.16487875  0.09840641     0.14200
N8          N  0.24564634  0.84224583  0.37481116    -0.02100
C9          C  0.26283422  0.86839245  0.37290988     0.00500
C10         C  0.26000278  0.87956583  0.34479363    -0.22400
C11         C  0.24045489  0.85988018  0.32877553    -0.22600
C12         C  0.23202017  0.83723446  0.34754388     0.00400
H13         H  0.27212853  0.89960948  0.33596901     0.14200
H14         H  0.23421162  0.86158584  0.30512420     0.14200
N15         N  0.90164295  0.20070065  0.15919754    -0.02100
C16         C  0.88761589  0.17407796  0.16137273     0.00500
C17         C  0.89633416  0.16366857  0.13946567    -0.22400
C18         C  0.91622411  0.18429002  0.12306206    -0.22600
C19         C  0.91910971  0.20671659  0.13544241     0.00400
H20         H  0.88758415  0.14330115  0.13406865     0.14200
H21         H  0.92606928  0.18306152  0.10261926     0.14200
N22         N  0.70612840  0.84157243  0.40617961    -0.02100
C23         C  0.71219678  0.82216483  0.40649129     0.00500
C24         C  0.72392766  0.82113163  0.43444763    -0.22400
C25         C  0.72545455  0.84066003  0.45194350    -0.22600
C26         C  0.71452631  0.85301484  0.43416969     0.00400
H27         H  0.73024130  0.80728464  0.44155634     0.14200
H28         H  0.73307620  0.84494387  0.47552027     0.14200
N29         N  0.89446650  0.68150399  0.10222310    -0.02100
C30         C  0.92098731  0.69450240  0.10283631     0.00500
C31         C  0.93101910  0.71177914  0.07681527    -0.22400
C32         C  0.91033341  0.70930218  0.05941216    -0.22600
C33         C  0.88825459  0.69062250  0.07529312     0.00400
H34         H  0.95122584  0.72293987  0.06951947     0.14200
H35         H  0.91130921  0.71842650  0.03631771     0.14200
N36         N  0.25148645  0.38214893  0.36177256    -0.02100
C37         C  0.22500367  0.36939354  0.36193123     0.00500
C38         C  0.21531478  0.35317682  0.33702921    -0.22400
C39         C  0.23628334  0.35601761  0.32070189    -0.22600
C40         C  0.25813153  0.37386721  0.33609634     0.00400
H41         H  0.19518327  0.34210420  0.33002770     0.14200
H42         H  0.23572801  0.34759456  0.29854462     0.14200
O43         O  0.96559254  0.32870456  0.35412417    -0.77100
C44         C  0.98701302  0.34174259  0.45776401     0.83900
O45         O  0.95916729  0.40127726  0.37607745    -0.78200
O46         O  0.03855943  0.42878789  0.44067781    -0.79700
O47         O  0.05785929  0.38383874  0.35971065    -0.79500
O48         O  0.99936315  0.35108577  0.32139480    -0.78100
Zn49       Zn  0.97271979  0.35237212  0.39082979     1.55700
O50         O  0.06106462  0.39118467  0.41099185    -0.79500
Cd51       Cd  0.02398360  0.38426184  0.34611073     1.59700
Cd52       Cd  0.99812332  0.41449287  0.37907647     1.59600
O53         O  0.03547294  0.41798171  0.31668706    -0.79500
O54         O  0.00540291  0.38516001  0.38463823    -1.90000
Cd55       Cd  0.02796160  0.39242720  0.42255796     1.59900
O56         O  0.01630600  0.43705413  0.33982395    -0.79500
O57         O  0.00838974  0.36343317  0.45754968    -0.78100
C58         C  0.93976602  0.37886167  0.38299093     0.84400
C59         C  0.97712015  0.33113367  0.32803451     0.84100
O60         O  0.97246846  0.33477551  0.43353169    -0.77100
C61         C  0.06984181  0.38734214  0.38589378     0.84900
O62         O  0.94245101  0.35915475  0.39069218    -0.77200
C63         C  0.03083670  0.43682378  0.31846372     0.85000
C64         C  0.02992122  0.44462343  0.43541427     0.85300
O65         O  0.01300735  0.44054450  0.41430797    -0.79600
O66         O  0.17186430  0.71624676  0.08438378    -0.77100
C67         C  0.15258257  0.70279970  0.18910571     0.83900
O68         O  0.18034868  0.64477579  0.11747080    -0.78200
O69         O  0.10061773  0.61642596  0.17915925    -0.79700
O70         O  0.07952328  0.66288060  0.09591244    -0.79500
O71         O  0.13758937  0.69455827  0.05364062    -0.78100
Zn72       Zn  0.16543980  0.69285848  0.12380886     1.55700
O73         O  0.07808349  0.65561003  0.14801900    -0.79500
Cd74       Cd  0.11270237  0.66131832  0.08208518     1.59700
Cd75       Cd  0.14091401  0.63145324  0.11648826     1.59600
O76         O  0.10072387  0.62774688  0.05624630    -0.79500
O77         O  0.13282701  0.66022524  0.12013117    -1.90000
Cd78       Cd  0.11113957  0.65311380  0.15862188     1.59900
O79         O  0.12540657  0.61185117  0.07620215    -0.79500
O80         O  0.13157093  0.68083034  0.19131772    -0.78100
C81         C  0.19940266  0.66725467  0.12289628     0.84400
C82         C  0.16012156  0.71419534  0.05830244     0.84100
O83         O  0.16634179  0.71048103  0.16391284    -0.77100
C84         C  0.06865037  0.65998452  0.12271170     0.84900
O85         O  0.19604883  0.68664234  0.12663500    -0.77200
C86         C  0.10878830  0.61125093  0.05634952     0.85000
C87         C  0.10790547  0.59981414  0.17460819     0.85300
O88         O  0.12387577  0.60348402  0.15270782    -0.79600
O89         O  0.47875237  0.12712136  0.35590980    -0.77100
C90         C  0.46929509  0.10910440  0.46013247     0.83900
O91         O  0.55903977  0.13830189  0.38979031    -0.78200
O92         O  0.50367093  0.05724958  0.45775655    -0.79700
O93         O  0.44484115  0.03550730  0.36942413    -0.79500
O94         O  0.47170709  0.09454456  0.32565000    -0.78100
Zn95       Zn  0.49611592  0.12275704  0.39541371     1.55700
O96         O  0.44578219  0.03335018  0.42182439    -0.79500
Cd97       Cd  0.47964015  0.07018767  0.35661172     1.59700
Cd98       Cd  0.53372586  0.09879807  0.39630832     1.59600
O99         O  0.50418103  0.05871682  0.33566119    -0.79500
O100        O  0.49672835  0.09008906  0.39505352    -1.90000
Cd101      Cd  0.47905513  0.06734209  0.43333286     1.59900
O102        O  0.54067007  0.07893469  0.36313594    -0.79500
O103        O  0.46855869  0.08711749  0.46317842    -0.78100
C104        C  0.55544904  0.15778311  0.39105579     0.84400
C105        C  0.47166553  0.11588881  0.32984257     0.84100
O106        O  0.47829114  0.12385871  0.43513634    -0.77100
C107        C  0.43486563  0.02369911  0.39598492     0.84900
O108        O  0.53267891  0.15454772  0.39436989    -0.77200
C109        C  0.52739816  0.06363880  0.34171812     0.85000
C110        C  0.52840517  0.06811155  0.45814554     0.85300
O111        O  0.54277109  0.08658182  0.43847311    -0.79600
O112        O  0.66197224  0.92798778  0.11737692    -0.77100
C113        C  0.66252493  0.92934104  0.22425342     0.83900
O114        O  0.58032576  0.91551035  0.15122582    -0.78200
O115        O  0.63481944  0.98868249  0.22162030    -0.79700
O116        O  0.69860605  0.01777117  0.13930178    -0.79500
O117        O  0.67396786  0.96591670  0.09075745    -0.78100
Zn118      Zn  0.64276904  0.92784115  0.15665169     1.55700
O119        O  0.69477533  0.01116009  0.19148493    -0.79500
Cd120      Cd  0.66443711  0.98599582  0.12257009     1.59700
Cd121      Cd  0.60706102  0.95418194  0.15808812     1.59600
O122        O  0.64224874  0.00022922  0.09868077    -0.79500
O123        O  0.64361772  0.96115873  0.15885503    -1.90000
Cd124      Cd  0.65884135  0.97768476  0.19937614     1.59900
O125        O  0.60345589  0.97617920  0.12178163    -0.79500
O126        O  0.66383818  0.95119201  0.22881223    -0.78100
C127        C  0.58345054  0.89581806  0.14897125     0.84400
C128        C  0.67171631  0.94314947  0.09278696     0.84100
O129        O  0.65602389  0.91900539  0.19756246    -0.77100
C130        C  0.70747368  0.02459796  0.16695774     0.84900
O131        O  0.60595233  0.89811556  0.15112166    -0.77200
C132        C  0.61824458  0.99357441  0.10130455     0.85000
C133        C  0.61067340  0.98131936  0.21886139     0.85300
O134        O  0.59684352  0.96599774  0.19772712    -0.79600
C135        C  0.71679287  0.33628100  0.37168661     0.81600
N136        N  0.71545204  0.35801782  0.36265484    -0.76700
C137        C  0.73736991  0.38179118  0.35966366     0.84000
N138        N  0.76083837  0.38367897  0.36541922    -0.76600
C139        C  0.76255480  0.36199864  0.37346890     0.84100
N140        N  0.74044116  0.33844040  0.37683594    -0.78400
C141        C  0.42596310  0.71998229  0.11013949     0.81600
N142        N  0.40171030  0.71656942  0.11333727    -0.76700
C143        C  0.38037352  0.69267986  0.11055025     0.84000
N144        N  0.38346059  0.67207963  0.10412282    -0.76600
C145        C  0.40755740  0.67510239  0.10047724     0.84100
N146        N  0.42876572  0.69923445  0.10337584    -0.78400
O147        O  0.38010815  0.43760471  0.05909223    -0.77100
C148        C  0.39103325  0.43358888  0.16477011     0.83900
O149        O  0.45093736  0.51850044  0.08321966    -0.78200
O150        O  0.47813153  0.46789414  0.15335439    -0.79700
O151        O  0.43231456  0.39774680  0.08034155    -0.79500
O152        O  0.40192471  0.42360281  0.03137969    -0.78100
Zn153      Zn  0.40258328  0.45548028  0.09654948     1.55700
O154        O  0.43923518  0.40618613  0.13112358    -0.79500
Cd155      Cd  0.43458388  0.43255220  0.05985274     1.59700
Cd156      Cd  0.46392199  0.49173512  0.08600893     1.59600
O157        O  0.46905449  0.45361101  0.03223580    -0.79500
O158        O  0.43514149  0.45509898  0.09423857    -1.90000
Cd159      Cd  0.44173396  0.44199066  0.13568763     1.59900
O160        O  0.48485498  0.49457434  0.04690620    -0.79500
O161        O  0.41331262  0.43547226  0.16817642    -0.78100
C162        C  0.42856139  0.51548326  0.08895679     0.84400
C163        C  0.38231010  0.42684869  0.03495962     0.84100
O164        O  0.38384975  0.43874555  0.13813164    -0.77100
C165        C  0.43495619  0.39104226  0.10879510     0.84900
O166        O  0.40901879  0.49282237  0.09498218    -0.77200
C167        C  0.48614725  0.47799908  0.03023803     0.85000
C168        C  0.49512970  0.49124838  0.14460062     0.85300
O169        O  0.49176327  0.50294216  0.12049579    -0.79600
O170        O  0.76395008  0.61853500  0.30306288    -0.77100
C171        C  0.75291850  0.62147555  0.40716571     0.83900
O172        O  0.69189479  0.53660883  0.33602036    -0.78200
O173        O  0.66672544  0.58720794  0.39924484    -0.79700
O174        O  0.70681573  0.65471888  0.31323804    -0.79500
O175        O  0.74256913  0.63314958  0.27234800    -0.78100
Zn176      Zn  0.74088591  0.59948235  0.34125348     1.55700
O177        O  0.70072020  0.64732289  0.36518940    -0.79500
Cd178      Cd  0.70873714  0.62188439  0.29949676     1.59700
Cd179      Cd  0.67898879  0.56320010  0.33528308     1.59600
O180        O  0.67603451  0.59987819  0.27160788    -0.79500
O181        O  0.70820156  0.59984222  0.33797824    -1.90000
Cd182      Cd  0.70191455  0.61350847  0.37686229     1.59900
O183        O  0.65865468  0.55987174  0.29479048    -0.79500
O184        O  0.73168327  0.62196224  0.40868789    -0.78100
C185        C  0.71472304  0.53984605  0.33849495     0.84400
C186        C  0.76217068  0.62988004  0.27746761     0.84100
O187        O  0.75913014  0.61427457  0.38254335    -0.77100
C188        C  0.70294736  0.66113693  0.34003651     0.84900
O189        O  0.73452350  0.56250548  0.34079634    -0.77200
C190        C  0.65882460  0.57558226  0.27294152     0.85000
C191        C  0.64957108  0.56370511  0.39403534     0.85300
O192        O  0.65208269  0.55201146  0.37126906    -0.79600
C193        C  0.54543287  0.51037628  0.20934126    -0.26800
C194        C  0.56758445  0.53119586  0.19440416     0.06800
C195        C  0.56557614  0.53906581  0.16317695     0.26400
C196        C  0.54185107  0.52627920  0.14740383    -0.11300
C197        C  0.51976968  0.50517469  0.16223416    -0.25300
C198        C  0.52183355  0.49738421  0.19349107     0.37200
C199        C  0.59270675  0.54345333  0.21143685     0.06800
F200        F  0.58673643  0.55831299  0.14744687    -0.19100
H201        H  0.54095907  0.53249024  0.12319911     0.16600
F202        F  0.50104252  0.47736991  0.20891663    -0.22800
H203        H  0.54644923  0.50406076  0.23346052     0.18400
C204        C  0.60797079  0.57075889  0.21369865     0.26400
C205        C  0.63030481  0.58135993  0.23246164    -0.11300
C206        C  0.63761773  0.56493643  0.24947256    -0.25300
C207        C  0.62285982  0.53772019  0.24598754     0.37300
C208        C  0.60079961  0.52725748  0.22718753    -0.26900
F209        F  0.60053805  0.58707898  0.19932703    -0.19100
H210        H  0.64116379  0.60231858  0.23482732     0.16600
F211        F  0.62938236  0.52098597  0.26121511    -0.22800
H212        H  0.58964829  0.50623696  0.22538405     0.18400
C213        C  0.55657719  0.51548179  0.00441876    -0.26800
C214        C  0.55507795  0.51092275  0.47012412     0.06800
C215        C  0.53038937  0.49722069  0.45610077     0.26400
C216        C  0.50789970  0.48414236  0.97761767    -0.11300
C217        C  0.50955610  0.48797238  0.01000099    -0.25300
C218        C  0.53415694  0.50355412  0.02324438     0.37200
C219        C  0.57936824  0.52446187  0.45087525     0.06800
F220        F  0.52817240  0.49656377  0.42431874    -0.19100
H221        H  0.48911725  0.47248719  0.96692090     0.16600
F222        F  0.53649005  0.50720940  0.05463538    -0.22800
H223        H  0.57522573  0.52711793  0.01541959     0.18400
C224        C  0.59821528  0.55065812  0.45556071     0.26400
C225        C  0.62112248  0.56311149  0.43747463    -0.11300
C226        C  0.62580659  0.54978166  0.41433004    -0.25300
C227        C  0.60703196  0.52337460  0.41010177     0.37300
C228        C  0.58413675  0.51100102  0.42814938    -0.26900
F229        F  0.59418264  0.56447473  0.47705236    -0.19100
H230        H  0.63502989  0.58338925  0.44131552     0.16600
F231        F  0.61064026  0.50933779  0.38854231    -0.22800
H232        H  0.57015891  0.49069101  0.42455934     0.18400
C233        C  0.39235468  0.60528054  0.08869448    -0.26800
C234        C  0.41686676  0.60737259  0.09281853     0.06800
C235        C  0.43845845  0.63211279  0.09787464     0.26400
C236        C  0.43537090  0.65405053  0.09952977    -0.11300
C237        C  0.41071342  0.65189924  0.09629473    -0.25300
C238        C  0.38921407  0.62718440  0.09032407     0.37200
C239        C  0.41972618  0.58373391  0.09178708     0.06800
F240        F  0.46244513  0.63496315  0.10237522    -0.19100
H241        H  0.45232828  0.67266508  0.10411412     0.16600
F242        F  0.36508128  0.62399769  0.08597188    -0.22800
H243        H  0.37553133  0.58657239  0.08405012     0.18400
C244        C  0.40307068  0.56054129  0.10946506     0.26400
C245        C  0.40574484  0.53833301  0.10796905    -0.11300
C246        C  0.42531298  0.53886540  0.08926449    -0.25300
C247        C  0.44207039  0.56212579  0.07176326     0.37300
C248        C  0.43914323  0.58419515  0.07290840    -0.26900
F249        F  0.38470878  0.55957549  0.12893955    -0.19100
H250        H  0.39284179  0.52084738  0.12206674     0.16600
F251        F  0.46098842  0.56343554  0.05302053    -0.22800
H252        H  0.45196317  0.60165850  0.05873350     0.18400
C253        C  0.70222431  0.47026364  0.34870673    -0.26800
C254        C  0.72645313  0.47345711  0.34022586     0.06800
C255        C  0.74648698  0.49846819  0.33014488     0.26400
C256        C  0.74252997  0.51994019  0.32970603    -0.11300
C257        C  0.71841281  0.51682152  0.33866876    -0.25300
C258        C  0.69812558  0.49163603  0.34783789     0.37200
C259        C  0.73060167  0.45063772  0.34279657     0.06800
F260        F  0.76972110  0.50209437  0.32018003    -0.19100
H261        H  0.75830655  0.53902593  0.32200395     0.16600
F262        F  0.67457687  0.48771523  0.35695868    -0.22800
H263        H  0.68655110  0.45120649  0.35669653     0.18400
C264        C  0.75212538  0.45194733  0.35894947     0.26400
C265        C  0.75466360  0.42968652  0.36331099    -0.11300
C266        C  0.73557010  0.40560815  0.35227727    -0.25300
C267        C  0.71436628  0.40443940  0.33547175     0.37300
C268        C  0.71200449  0.42678325  0.33076852    -0.26900
F269        F  0.76994047  0.47431552  0.37209881    -0.19100
H270        H  0.77107066  0.43107508  0.37652275     0.16600
F271        F  0.69592042  0.38175536  0.32353217    -0.22800
H272        H  0.69540844  0.42539174  0.31800452     0.18400
C273        C  0.54046438  0.82277389  0.13838699    -0.26800
C274        C  0.51634779  0.82088507  0.13142559     0.06800
C275        C  0.51445664  0.84376775  0.13051536     0.26400
C276        C  0.53623425  0.86788816  0.13649054    -0.11300
C277        C  0.56045237  0.86985911  0.14330707    -0.25300
C278        C  0.56232332  0.84692172  0.14409232     0.37200
C279        C  0.49323940  0.79502102  0.12567153     0.06800
F280        F  0.49170011  0.84296678  0.12310893    -0.19100
H281        H  0.53413652  0.88512964  0.13539892     0.16600
F282        F  0.58516171  0.84763620  0.15061984    -0.22800
H283        H  0.54234961  0.80540801  0.13979207     0.18400
C284        C  0.49471244  0.77765971  0.10547972     0.26400
C285        C  0.47286805  0.75323320  0.10072507    -0.11300
C286        C  0.44904690  0.74577848  0.11557065    -0.25300
C287        C  0.44758287  0.76317132  0.13572925     0.37300
C288        C  0.46949396  0.78738821  0.14081261    -0.26900
F289        F  0.51707720  0.78454143  0.08970779    -0.19100
H290        H  0.47447841  0.74030475  0.08495293     0.16600
F291        F  0.42520188  0.75654461  0.15132219    -0.22800
H292        H  0.46796634  0.80008751  0.15702529     0.18400
C293        C  0.59912422  0.23178232  0.39305717    -0.26800
C294        C  0.62315417  0.23494288  0.38363854     0.06800
C295        C  0.62461192  0.21273782  0.37650182     0.26400
C296        C  0.60255191  0.18793222  0.37896965    -0.11300
C297        C  0.57843051  0.18457984  0.38845714    -0.25300
C298        C  0.57692770  0.20688567  0.39546960     0.37200
C299        C  0.64675064  0.26124803  0.38152502     0.06800
F300        F  0.64730413  0.21506079  0.36646981    -0.19100
H301        H  0.60439922  0.17128476  0.37316579     0.16600
F302        F  0.55423747  0.20470978  0.40521652    -0.22800
H303        H  0.59763261  0.24860174  0.39902208     0.18400
C304        C  0.64670694  0.28232972  0.36447444     0.26400
C305        C  0.66944681  0.30668849  0.36167231    -0.11300
C306        C  0.69270789  0.31050046  0.37563284    -0.25300
C307        C  0.69257523  0.28944064  0.39313806     0.37300
C308        C  0.66980129  0.26517805  0.39606292    -0.26900
F309        F  0.62494687  0.27915943  0.34958034    -0.19100
H310        H  0.66892958  0.32245040  0.34797876     0.16600
F311        F  0.71428180  0.29224009  0.40783340    -0.22800
H312        H  0.67016045  0.24934420  0.40979497     0.18400
C313        C  0.57691512  0.06482003  0.51472125    -0.26800
C314        C  0.57079473  0.03939290  0.01866834     0.06800
C315        C  0.54653554  0.02214662  0.00559768     0.26400
C316        C  0.52978196  0.03105491  0.48648772    -0.11300
C317        C  0.54081658  0.05811897  0.48086032    -0.25300
C318        C  0.56456427  0.07502347  0.49503418     0.37200
C319        C  0.58390668  0.02909389  0.04045858     0.06800
F320        F  0.53576880  0.99584481  0.01052406    -0.19100
H321        H  0.51495968  0.01809244  0.97650333     0.16600
F322        F  0.57563392  0.10135783  0.49014097    -0.22800
H323        H  0.59482037  0.07820515  0.52607805     0.18400
C324        C  0.61054809  0.03720182  0.03757649     0.26400
C325        C  0.62179142  0.02581015  0.05744906    -0.11300
C326        C  0.60670781  0.00617207  0.08048434    -0.25300
C327        C  0.58017921  0.99866074  0.08366292     0.37300
C328        C  0.56918322  0.01019896  0.06414724    -0.26900
F329        F  0.62143148  0.05612238  0.51765753    -0.19100
H330        H  0.64222708  0.03215493  0.05453447     0.16600
F331        F  0.56449723  0.97993327  0.10546003    -0.22800
H332        H  0.54884815  0.00413148  0.06749897     0.18400
C333        C  0.56049632  0.98785390  0.26602172    -0.26800
C334        C  0.57466724  0.01410882  0.27418108     0.06800
C335        C  0.60113437  0.02890611  0.26532136     0.26400
C336        C  0.61291014  0.01772589  0.24855924    -0.11300
C337        C  0.59854171  0.99176383  0.23962545    -0.25300
C338        C  0.57217282  0.97683690  0.24867209     0.37200
C339        C  0.56194355  0.02606299  0.29174760     0.06800
F340        F  0.61541535  0.05456520  0.27165038    -0.19100
H341        H  0.63309936  0.02976679  0.24142622     0.16600
F342        F  0.55772486  0.95152129  0.24096910    -0.22800
H343        H  0.54030156  0.97580729  0.27308272     0.18400
C344        C  0.53751040  0.02285143  0.28289154     0.26400
C345        C  0.52640805  0.03510770  0.29901520    -0.11300
C346        C  0.53936868  0.05088690  0.32427386    -0.25300
C347        C  0.56365671  0.05367124  0.33338105     0.37300
C348        C  0.57459010  0.04133163  0.31739146    -0.26900
F349        F  0.52463882  0.00847612  0.25807279    -0.19100
H350        H  0.50769084  0.03236763  0.29152004     0.16600
F351        F  0.57695003  0.06810977  0.35800213    -0.22800
H352        H  0.59306769  0.04364626  0.32527856     0.18400
C353        C  0.27166806  0.69587279  0.13876372    -0.26800
C354        C  0.27690718  0.67813028  0.12426596     0.06800
C355        C  0.25629690  0.65643981  0.11035060     0.26400
C356        C  0.23118066  0.65284712  0.11061711    -0.11300
C357        C  0.22601707  0.67091906  0.12433559    -0.25300
C358        C  0.24654213  0.69245369  0.13869652     0.37200
C359        C  0.30383062  0.68249490  0.12286305     0.06800
F360        F  0.26056960  0.63919732  0.09533339    -0.19100
H361        H  0.21584628  0.63618188  0.09925653     0.16600
F362        F  0.24236318  0.71008012  0.15294848    -0.22800
H363        H  0.28707070  0.71243456  0.15019466     0.18400
C364        C  0.32488146  0.70709532  0.11326993     0.26400
C365        C  0.34974757  0.71032924  0.10977775    -0.11300
C366        C  0.35409502  0.68910729  0.11539195    -0.25300
C367        C  0.33317791  0.66469892  0.12576211     0.37300
C368        C  0.30843389  0.66158005  0.12970733    -0.26900
F369        F  0.32127462  0.72775494  0.10596742    -0.19100
H370        H  0.36550216  0.72934511  0.10182025     0.16600
F371        F  0.33662082  0.64387897  0.13254850    -0.22800
H372        H  0.29272791  0.64263615  0.13794518     0.18400
C373        C  0.88368657  0.39024957  0.36293664    -0.26800
C374        C  0.86406942  0.37140024  0.38301485     0.06800
C375        C  0.86926180  0.35455755  0.40254765     0.26400
C376        C  0.89381550  0.35673654  0.40204466    -0.11300
C377        C  0.91357227  0.37586419  0.38228240    -0.25300
C378        C  0.90824355  0.39252868  0.36250916     0.37200
C379        C  0.83800220  0.36883634  0.38247375     0.06800
F380        F  0.85078104  0.33643103  0.42260887    -0.19100
H381        H  0.89754641  0.34382538  0.41760100     0.16600
F382        F  0.92655054  0.41061930  0.34222744    -0.22800
H383        H  0.87983926  0.40298935  0.34721020     0.18400
C384        C  0.83490011  0.39067608  0.38594314     0.26400
C385        C  0.81026956  0.38823743  0.38341171    -0.11300
C386        C  0.78832335  0.36399210  0.37748443    -0.25300
C387        C  0.79149582  0.34205873  0.37456544     0.37300
C388        C  0.81612792  0.34456543  0.37702287    -0.26900
F389        F  0.85566054  0.41430006  0.39197338    -0.19100
H390        H  0.80839264  0.40537871  0.38606880     0.16600
F391        F  0.77105505  0.31837506  0.36810373    -0.22800
H392        H  0.81823818  0.32762502  0.37380786     0.18400
C393        C  0.06626678  0.49786530  0.99679548    -0.26800
C394        C  0.05978468  0.51582550  0.48576361     0.06800
C395        C  0.04325523  0.51132522  0.45982978     0.26400
C396        C  0.03338230  0.48803826  0.44409793    -0.11300
C397        C  0.03992581  0.46873699  0.45347845    -0.25300
C398        C  0.05649880  0.47329203  0.47941200     0.37200
C399        C  0.07516346  0.54396798  0.99950553     0.06800
F400        F  0.03749232  0.52985207  0.44874880    -0.19100
H401        H  0.02097887  0.48541527  0.42400244     0.16600
F402        F  0.05959549  0.45477389  0.99535610    -0.22800
H403        H  0.07689872  0.50012668  0.01847065     0.18400
C404        C  0.06093272  0.55646106  0.00628740     0.26400
C405        C  0.07239843  0.57930044  0.02320648    -0.11300
C406        C  0.09807603  0.58988349  0.03400160    -0.25300
C407        C  0.11253873  0.57793323  0.02602825     0.37300
C408        C  0.10118703  0.55534158  0.00898826    -0.26900
F409        F  0.03552686  0.54580059  0.99825871    -0.19100
H410        H  0.06074504  0.58791546  0.02926837     0.16600
F411        F  0.13763494  0.58783405  0.03514149    -0.22800
H412        H  0.11028245  0.54607750  0.50142548     0.18400
C413        C  0.06175934  0.50693383  0.28707052    -0.26800
C414        C  0.06505444  0.50490468  0.25502522     0.06800
C415        C  0.05810952  0.48018177  0.24395181     0.26400
C416        C  0.04753148  0.45792750  0.26467390    -0.11300
C417        C  0.04334053  0.46001688  0.29645673    -0.25300
C418        C  0.05081228  0.48481995  0.30750678     0.37200
C419        C  0.07561581  0.52877721  0.23370721     0.06800
F420        F  0.06067118  0.47738249  0.21300517    -0.19100
H421        H  0.04189013  0.43901041  0.25573511     0.16600
F422        F  0.04791522  0.48781651  0.33832317    -0.22800
H423        H  0.06770265  0.52579247  0.29640001     0.18400
C424        C  0.06613635  0.54634203  0.23527238     0.26400
C425        C  0.07691835  0.56939104  0.21626597    -0.11300
C426        C  0.09722298  0.57543543  0.19503224    -0.25300
C427        C  0.10662151  0.55774106  0.19331204     0.37300
C428        C  0.09592405  0.53473566  0.21256698    -0.26900
F429        F  0.04608774  0.54104788  0.25482733    -0.19100
H430        H  0.06908716  0.58240423  0.21800670     0.16600
F431        F  0.12633035  0.56267293  0.17337561    -0.22800
H432        H  0.10387100  0.52177794  0.21134510     0.18400
C433        C  0.12733881  0.38132420  0.41703906    -0.26800
C434        C  0.14282023  0.38770868  0.38991280     0.06800
C435        C  0.13411065  0.39378036  0.36138386     0.26400
C436        C  0.11029903  0.39339591  0.36013233    -0.11300
C437        C  0.09483539  0.38721927  0.38733796    -0.25300
C438        C  0.10368653  0.38125142  0.41592392     0.37200
C439        C  0.16648111  0.38515394  0.39053375     0.06800
F440        F  0.14814731  0.39905392  0.33445132    -0.19100
H441        H  0.10399084  0.39802070  0.33783911     0.16600
F442        F  0.08912038  0.37450382  0.44263717    -0.22800
H443        H  0.13348277  0.37609090  0.43907147     0.18400
C444        C  0.19079718  0.40600247  0.38029755     0.26400
C445        C  0.21155696  0.40158151  0.37499615    -0.11300
C446        C  0.20812033  0.37628388  0.37940756    -0.25300
C447        C  0.18452374  0.35607301  0.39228650     0.37300
C448        C  0.16400222  0.36057483  0.39806541    -0.26900
F449        F  0.19394598  0.43018432  0.37365845    -0.19100
H450        H  0.22942784  0.41730593  0.36460277     0.16600
F451        F  0.18053742  0.33136858  0.39647685    -0.22800
H452        H  0.14546840  0.34429920  0.40606097     0.18400
C453        C  0.27949204  0.38635844  0.44259724    -0.26800
C454        C  0.30514920  0.40695831  0.43793650     0.06800
C455        C  0.31167349  0.42154822  0.40891385     0.26400
C456        C  0.29333126  0.41472126  0.38475134    -0.11300
C457        C  0.26819115  0.39299184  0.38865825    -0.25300
C458        C  0.26122816  0.37942857  0.41837776     0.37200
C459        C  0.32513808  0.41228067  0.46279669     0.06800
F460        F  0.33590850  0.44226385  0.40371878    -0.19100
H461        H  0.29909547  0.42611641  0.36270088     0.16600
F462        F  0.23733555  0.35817517  0.42340900    -0.22800
H463        H  0.27387498  0.37466379  0.46455633     0.18400
C464        C  0.31969804  0.41328148  0.99307164     0.26400
C465        C  0.33839239  0.41861402  0.01650760    -0.11300
C466        C  0.36179690  0.41887714  0.01022875    -0.25300
C467        C  0.36570623  0.41306181  0.97975470     0.37300
C468        C  0.34946657  0.41526440  0.45495717    -0.26900
F469        F  0.29696121  0.41142231  0.50322668    -0.19100
H470        H  0.33461596  0.42289115  0.03960859     0.16600
F471        F  0.38775531  0.41284403  0.97233794    -0.22800
H472        H  0.35386081  0.41379098  0.43082704     0.18400
C473        C  0.31602548  0.38132686  0.29217925    -0.26800
C474        C  0.32348931  0.40483213  0.27437977     0.06800
C475        C  0.31207009  0.41995846  0.28136334     0.26400
C476        C  0.29226114  0.41074606  0.30395533    -0.11300
C477        C  0.28381079  0.38660114  0.32042402    -0.25300
C478        C  0.29621907  0.37218599  0.31493121     0.37200
C479        C  0.34102838  0.41215334  0.24659900     0.06800
F480        F  0.31925149  0.44311088  0.26531881    -0.19100
H481        H  0.28237431  0.42172863  0.30725095     0.16600
F482        F  0.28792534  0.34845370  0.33001797    -0.22800
H483        H  0.32434094  0.36921641  0.28707701     0.18400
C484        C  0.36483993  0.41240342  0.24858328     0.26400
C485        C  0.38082182  0.41913623  0.22189489    -0.11300
C486        C  0.37338382  0.42565006  0.19262636    -0.25300
C487        C  0.34931864  0.42503080  0.19070001     0.37300
C488        C  0.33341913  0.41830393  0.21736232    -0.26900
F489        F  0.37294678  0.40673359  0.27644483    -0.19100
H490        H  0.39917350  0.41940852  0.22427049     0.16600
F491        F  0.34105542  0.43104615  0.16317760    -0.22800
H492        H  0.31488767  0.41767284  0.21506616     0.18400
C493        C  0.01467983  0.67020556  0.15462241    -0.26800
C494        C  0.99925662  0.66685711  0.12793706     0.06800
C495        C  0.00653501  0.66080989  0.09965463     0.26400
C496        C  0.02897847  0.65856842  0.09808983    -0.11300
C497        C  0.04452100  0.66193694  0.12476554    -0.25300
C498        C  0.03687005  0.66751162  0.15326817     0.37200
C499        C  0.97700030  0.67191358  0.12880153     0.06800
F500        F  0.99249091  0.65810109  0.07314995    -0.19100
H501        H  0.03423686  0.65424894  0.07587798     0.16600
F502        F  0.05124615  0.67121983  0.17968990    -0.22800
H503        H  0.00961162  0.67513968  0.17654499     0.18400
C504        C  0.95170702  0.65285995  0.12048577     0.26400
C505        C  0.93206136  0.65945885  0.11612956    -0.11300
C506        C  0.93741680  0.68523247  0.11952294    -0.25300
C507        C  0.96216902  0.70368489  0.13021661     0.37300
C508        C  0.98162401  0.69697558  0.13508693    -0.26900
F509        F  0.94639343  0.62825691  0.11496482    -0.19100
H510        H  0.91340296  0.64505105  0.10725100     0.16600
F511        F  0.96821437  0.72886890  0.13326085    -0.22800
H512        H  0.00090754  0.71194607  0.14158217     0.18400
C513        C  0.84296148  0.64077243  0.16343319    -0.26800
C514        C  0.84112934  0.66022234  0.17915240     0.06800
C515        C  0.85862652  0.68663151  0.17063517     0.26400
C516        C  0.87688409  0.69330380  0.14638985    -0.11300
C517        C  0.87813683  0.67390455  0.12999040    -0.25300
C518        C  0.86114735  0.64752392  0.13888177     0.37200
C519        C  0.82108878  0.65291837  0.20437555     0.06800
F520        F  0.85812139  0.70600373  0.18583642    -0.19100
H521        H  0.88970956  0.71374763  0.13965222     0.16600
F522        F  0.86176465  0.62836726  0.12340266    -0.22800
H523        H  0.82980282  0.62030062  0.16966092     0.18400
C524        C  0.80292139  0.66174431  0.20252631     0.26400
C525        C  0.78407412  0.65450144  0.22634794    -0.11300
C526        C  0.78300922  0.63851628  0.25278066    -0.25300
C527        C  0.80141927  0.62987603  0.25456290     0.37300
C528        C  0.81999453  0.63687799  0.23057261    -0.26900
F529        F  0.80291990  0.67679343  0.17721834    -0.19100
H530        H  0.77019610  0.66134283  0.22398380     0.16600
F531        F  0.80126222  0.61413595  0.27915749    -0.22800
H532        H  0.83374246  0.62984518  0.23256112     0.18400
C533        C  0.80937831  0.63473236  0.46217798    -0.26800
C534        C  0.80316800  0.64403305  0.48851264     0.06800
C535        C  0.78029055  0.64566469  0.48791879     0.26400
C536        C  0.76420603  0.63834501  0.46149737    -0.11300
C537        C  0.77047417  0.62922618  0.43495522    -0.25300
C538        C  0.79327145  0.62731309  0.43576288     0.37200
C539        C  0.82205540  0.65655550  0.01541292     0.06800
F540        F  0.77663087  0.66213944  0.00983381    -0.19100
H541        H  0.74675252  0.63987133  0.46189620     0.16600
F542        F  0.80015017  0.61831878  0.41111211    -0.22800
H543        H  0.82708512  0.63366227  0.46177922     0.18400
C544        C  0.83094315  0.64084054  0.03110166     0.26400
C545        C  0.85094426  0.65149561  0.05317522    -0.11300
C546        C  0.86255493  0.67797501  0.05987462    -0.25300
C547        C  0.85272374  0.69329940  0.04562280     0.37300
C548        C  0.83260553  0.68263908  0.02372685    -0.26900
F549        F  0.82096121  0.61542836  0.02425961    -0.19100
H550        H  0.85866188  0.63953141  0.06326149     0.16600
F551        F  0.86359435  0.71899381  0.05160200    -0.22800
H552        H  0.82631552  0.69525207  0.01192054     0.18400
C553        C  0.70511545  0.72657194  0.32177668    -0.26800
C554        C  0.69864829  0.73147765  0.35129078     0.06800
C555        C  0.69272610  0.71275643  0.37631550     0.26400
C556        C  0.69386379  0.69004515  0.37211050    -0.11300
C557        C  0.70084366  0.68516490  0.34284112    -0.25300
C558        C  0.70598794  0.70354838  0.31741796     0.37200
C559        C  0.69978227  0.75669568  0.35709728     0.06800
F560        F  0.68695719  0.71695380  0.40539118    -0.19100
H561        H  0.68957484  0.67638298  0.39219003     0.16600
F562        F  0.71232027  0.69962000  0.28854353    -0.22800
H563        H  0.70968379  0.74070074  0.30215037     0.18400
C564        C  0.72318510  0.78056487  0.35264227     0.26400
C565        C  0.72615615  0.80326874  0.36550982    -0.11300
C566        C  0.70581155  0.80261704  0.38263674    -0.25300
C567        C  0.68174556  0.77932971  0.38471642     0.37300
C568        C  0.67875342  0.75663927  0.37190070    -0.26900
F569        F  0.74404593  0.78133447  0.33891310    -0.19100
H570        H  0.74509521  0.82079875  0.36453498     0.16600
F571        F  0.66215058  0.77767754  0.40243959    -0.22800
H572        H  0.66055749  0.73849662  0.37561200     0.18400
C573        C  0.68132657  0.88664136  0.46894924    -0.26800
C574        C  0.70152708  0.90496086  0.48720051     0.06800
C575        C  0.72671711  0.90888879  0.48348417     0.26400
C576        C  0.73124618  0.89358756  0.46337521    -0.11300
C577        C  0.71073739  0.87386566  0.44684114    -0.25300
C578        C  0.68579433  0.87103195  0.44905891     0.37200
C579        C  0.69188915  0.91454216  0.01206439     0.06800
F580        F  0.74452397  0.93283077  0.99312428    -0.19100
H581        H  0.75055537  0.89596275  0.46230115     0.16600
F582        F  0.66522405  0.85137288  0.43488926    -0.22800
H583        H  0.66169620  0.88307460  0.47189529     0.18400
C584        C  0.70043650  0.94138504  0.01374873     0.26400
C585        C  0.69412178  0.95067124  0.04005412    -0.11300
C586        C  0.67947350  0.93347817  0.06544864    -0.25300
C587        C  0.67109096  0.90660559  0.06358082     0.37300
C588        C  0.67712959  0.89739480  0.03720193    -0.26900
F589        F  0.68382289  0.94214697  0.47755376    -0.19100
H590        H  0.70070286  0.97137195  0.04051129     0.16600
F591        F  0.65658424  0.88894375  0.08695942    -0.22800
H592        H  0.67051047  0.87668375  0.03659959     0.18400
C593        C  0.66731994  0.85233575  0.34214283    -0.26800
C594        C  0.68653925  0.87559159  0.32684058     0.06800
C595        C  0.71234624  0.88674424  0.33741648     0.26400
C596        C  0.71856911  0.87528375  0.36331075    -0.11300
C597        C  0.69930828  0.85241972  0.37895859    -0.25300
C598        C  0.67365282  0.84077983  0.36798918     0.37200
C599        C  0.67963711  0.88884185  0.30076659     0.06800
F600        F  0.73157529  0.90862559  0.32248955    -0.19100
H601        H  0.73847668  0.88424825  0.37134495     0.16600
F602        F  0.65463201  0.81884783  0.38297123    -0.22800
H603        H  0.64730131  0.84350261  0.33454274     0.18400
C604        C  0.66693648  0.87579143  0.27367324     0.26400
C605        C  0.66158368  0.88905912  0.24887411    -0.11300
C606        C  0.66840623  0.91548604  0.25075281    -0.25300
C607        C  0.68056311  0.92826106  0.27835155     0.37300
C608        C  0.68620820  0.91508243  0.30285040    -0.26900
F609        F  0.66031789  0.85042834  0.27082483    -0.19100
H610        H  0.65198958  0.87855927  0.22818675     0.16600
F611        F  0.68737882  0.95362351  0.28167233    -0.22800
H612        H  0.69571858  0.92541783  0.32367769     0.18400
C613        C  0.82871638  0.11348548  0.19285283    -0.26800
C614        C  0.80882492  0.11773561  0.18078332     0.06800
C615        C  0.81533627  0.14315106  0.16926941     0.26400
C616        C  0.84148226  0.16307423  0.16699901    -0.11300
C617        C  0.86147372  0.15789298  0.17594149    -0.25300
C618        C  0.85477652  0.13328132  0.19033617     0.37200
C619        C  0.78204860  0.09500192  0.17772243     0.06800
F620        F  0.79654175  0.14834035  0.15870707    -0.19100
H621        H  0.84617363  0.18177138  0.15551077     0.16600
F622        F  0.87363472  0.12766052  0.19928009    -0.22800
H623        H  0.82424845  0.09420956  0.20210352     0.18400
C624        C  0.76965256  0.08929569  0.14830341     0.26400
C625        C  0.74554214  0.06653248  0.14499286    -0.11300
C626        C  0.73312958  0.04886674  0.17086877    -0.25300
C627        C  0.74555682  0.05476783  0.20038881     0.37300
C628        C  0.76971738  0.07745660  0.20359593    -0.26900
F629        F  0.78138010  0.10512788  0.12237946    -0.19100
H630        H  0.73667124  0.06266103  0.12198274     0.16600
F631        F  0.73474425  0.03839708  0.22617655    -0.22800
H632        H  0.77898056  0.08124203  0.22639021     0.18400
C633        C  0.96576665  0.28919612  0.25792855    -0.26800
C634        C  0.93857461  0.27305491  0.25821400     0.06800
C635        C  0.92408969  0.27592252  0.28192288     0.26400
C636        C  0.93671916  0.29443052  0.30485269    -0.11300
C637        C  0.96399538  0.31069752  0.30443619    -0.25300
C638        C  0.97834552  0.30780834  0.28053725     0.37200
C639        C  0.92621291  0.25251134  0.23464288     0.06800
F640        F  0.89785685  0.26037901  0.28348141    -0.19100
H641        H  0.92507613  0.29622205  0.32279862     0.16600
F642        F  0.00465909  0.32260206  0.27927234    -0.22800
H643        H  0.97739206  0.28733997  0.24000670     0.18400
C644        C  0.90622334  0.25065625  0.21442126     0.26400
C645        C  0.89726132  0.23288255  0.19019211    -0.11300
C646        C  0.90793080  0.21667119  0.18602124    -0.25300
C647        C  0.92700570  0.21782116  0.20703867     0.37300
C648        C  0.93601156  0.23551142  0.23091163    -0.26900
F649        F  0.89636944  0.26688331  0.21703137    -0.19100
H650        H  0.88258027  0.23228904  0.17414068     0.16600
F651        F  0.93765442  0.20238833  0.20353631    -0.22800
H652        H  0.95120819  0.23634788  0.24623592     0.18400
C653        C  0.96988948  0.26052751  0.08228943    -0.26800
C654        C  0.95651772  0.27347988  0.07165556     0.06800
C655        C  0.93309710  0.26741055  0.08668892     0.26400
C656        C  0.92229512  0.24732548  0.11026722    -0.11300
C657        C  0.93448379  0.23277110  0.11893562    -0.25300
C658        C  0.95894544  0.24023776  0.10562634     0.37200
C659        C  0.96533233  0.29093040  0.04270114     0.06800
F660        F  0.91999141  0.27998445  0.07731062    -0.19100
H661        H  0.90328647  0.24169655  0.11975579     0.16600
F662        F  0.97142000  0.22675962  0.11372987    -0.22800
H663        H  0.98797668  0.26494600  0.07105127     0.18400
C664        C  0.99011671  0.31329087  0.04036198     0.26400
C665        C  0.99521054  0.33138832  0.51356015    -0.11300
C666        C  0.97874492  0.32458556  0.48719555    -0.25300
C667        C  0.95417057  0.30172228  0.48977439     0.37300
C668        C  0.94632197  0.28647004  0.51800270    -0.26900
F669        F  0.00667813  0.31977798  0.06502184    -0.19100
H670        H  0.01422534  0.34880823  0.51246722     0.16600
F671        F  0.93751506  0.29406557  0.46519136    -0.22800
H672        H  0.92739983  0.26891244  0.51927402     0.18400
C673        C  0.37508789  0.96031819  0.37232156    -0.26800
C674        C  0.36256282  0.94949135  0.40150009     0.06800
C675        C  0.37413836  0.96290558  0.42873330     0.26400
C676        C  0.39758322  0.98678553  0.42667785    -0.11300
C677        C  0.40999072  0.99804574  0.39739485    -0.25300
C678        C  0.39842090  0.98433625  0.37014818     0.37200
C679        C  0.33673789  0.92509856  0.40270703     0.06800
F680        F  0.36285327  0.95282439  0.45737232    -0.19100
H681        H  0.40590903  0.99658901  0.44817922     0.16600
F682        F  0.40951126  0.99404004  0.34134490    -0.22800
H683        H  0.36640344  0.95038931  0.35098105     0.18400
C684        C  0.31452568  0.92532480  0.41337779     0.26400
C685        C  0.28962425  0.90441879  0.40769463    -0.11300
C686        C  0.28645464  0.88276793  0.39190308    -0.25300
C687        C  0.30866505  0.88130969  0.38431950     0.37300
C688        C  0.33357998  0.90243585  0.38939111    -0.26900
F689        F  0.31677265  0.94691228  0.42617112    -0.19100
H690        H  0.27281333  0.90626910  0.41289385     0.16600
F691        F  0.30627605  0.86096687  0.36830260    -0.22800
H692        H  0.35040532  0.90179010  0.38111892     0.18400
C693        C  0.20066387  0.80393016  0.44209924    -0.26800
C694        C  0.21300093  0.79107310  0.45659114     0.06800
C695        C  0.23745248  0.79667854  0.44468988     0.26400
C696        C  0.24877200  0.81427957  0.41845951    -0.11300
C697        C  0.23578331  0.82624077  0.40354451    -0.25300
C698        C  0.21182807  0.82120247  0.41591146     0.37200
C699        C  0.19938790  0.77110275  0.48291976     0.06800
F700        F  0.24978023  0.78419491  0.45729777    -0.19100
H701        H  0.26717418  0.81786919  0.40908784     0.16600
F702        F  0.19903015  0.83281495  0.40219437    -0.22800
H703        H  0.18208742  0.80034725  0.45089407     0.18400
C704        C  0.21303458  0.77366559  0.01198199     0.26400
C705        C  0.19959187  0.75478998  0.03631733    -0.11300
C706        C  0.17360116  0.73482852  0.03258044    -0.25300
C707        C  0.16134083  0.73443837  0.00371709     0.37300
C708        C  0.17288575  0.75236680  0.48016057    -0.26900
F709        F  0.23782495  0.79283512  0.01685799    -0.19100
H710        H  0.20969738  0.75576681  0.05811500     0.16600
F711        F  0.13640205  0.71572562  0.99863716    -0.22800
H712        H  0.16253605  0.75208750  0.45879662     0.18400
C713        C  0.21041388  0.77217341  0.31337861    -0.26800
C714        C  0.18919237  0.76933714  0.29524102     0.06800
C715        C  0.17928197  0.78619496  0.29941257     0.26400
C716        C  0.19191897  0.80699866  0.31926353    -0.11300
C717        C  0.21436154  0.81108205  0.33559178    -0.25300
C718        C  0.22283668  0.79277678  0.33363758     0.37200
C719        C  0.17984951  0.75142291  0.26900741     0.06800
F720        F  0.15890560  0.78402790  0.28206258    -0.19100
H721        H  0.18525328  0.82103536  0.32021401     0.16600
F722        F  0.24477315  0.79642589  0.34848213    -0.22800
H723        H  0.21828676  0.75932440  0.31041455     0.18400
C724        C  0.19642768  0.75604872  0.24336281     0.26400
C725        C  0.18734097  0.74037181  0.21746596    -0.11300
C726        C  0.16158207  0.71955598  0.21665677    -0.25300
C727        C  0.14502038  0.71482173  0.24260629     0.37300
C728        C  0.15409342  0.73080258  0.26836160    -0.26900
F729        F  0.22126219  0.77628210  0.24297695    -0.19100
H730        H  0.20060353  0.74451445  0.19804179     0.16600
F731        F  0.11995637  0.69506619  0.24298665    -0.22800
H732        H  0.14100254  0.72713418  0.28782714     0.18400
C733        C  0.40670668  0.27210543  0.16180179    -0.26800
C734        C  0.42676385  0.28967082  0.14111318     0.06800
C735        C  0.44316282  0.28159486  0.12821247     0.26400
C736        C  0.43828798  0.25587283  0.13409937    -0.11300
C737        C  0.41682490  0.23770355  0.15259223    -0.25300
C738        C  0.40161049  0.24633280  0.16726972     0.37200
C739        C  0.42962514  0.31584390  0.13237887     0.06800
F740        F  0.46329941  0.29827590  0.10900196    -0.19100
H741        H  0.44994122  0.24953911  0.12200565     0.16600
F742        F  0.38052385  0.22919455  0.18489277    -0.22800
H743        H  0.39394498  0.27788763  0.17224989     0.18400
C744        C  0.42917174  0.32404601  0.10072648     0.26400
C745        C  0.43085310  0.34835310  0.09308162    -0.11300
C746        C  0.43297592  0.36502668  0.11678303    -0.25300
C747        C  0.43307758  0.35645706  0.14851153     0.37300
C748        C  0.43137987  0.33224555  0.15601746    -0.26900
F749        F  0.42620777  0.30817074  0.07722065    -0.19100
H750        H  0.43039266  0.35406190  0.06855695     0.16600
F751        F  0.43449483  0.37123745  0.17261086    -0.22800
H752        H  0.43144996  0.32625482  0.18053314     0.18400
C753        C  0.42607270  0.17485452  0.23091599    -0.26800
C754        C  0.44720891  0.17057455  0.22805922     0.06800
C755        C  0.46142250  0.17863765  0.19953262     0.26400
C756        C  0.45370158  0.18935029  0.17406675    -0.11300
C757        C  0.43157062  0.19215396  0.17626697    -0.25300
C758        C  0.41829782  0.18543919  0.20549855     0.37200
C759        C  0.45334484  0.15650952  0.25422565     0.06800
F760        F  0.48257463  0.17578291  0.19608859    -0.19100
H761        H  0.46461232  0.19465074  0.15229055     0.16600
F762        F  0.39650691  0.18716814  0.20889327    -0.22800
H763        H  0.41461313  0.16868781  0.25242245     0.18400
C764        C  0.45502183  0.16358453  0.28560122     0.26400
C765        C  0.46040706  0.14996459  0.30989551    -0.11300
C766        C  0.46411287  0.12879857  0.30373867    -0.25300
C767        C  0.46196622  0.12143131  0.27237988     0.45700
C768        C  0.45669752  0.13517113  0.24804641    -0.26900
F769        F  0.45214983  0.18414832  0.29276348    -0.19100
H770        H  0.46191920  0.15624830  0.33365653     0.16600
F771        F  0.46546728  0.10130789  0.26497972    -0.22800
H772        H  0.45500824  0.12893657  0.22423592     0.18400
C773        C  0.45375746  0.15078219  0.51094020    -0.26800
C774        C  0.44555850  0.13602980  0.03654475     0.06800
C775        C  0.44399439  0.11139825  0.03874209     0.26400
C776        C  0.45149972  0.10234041  0.51502045    -0.11300
C777        C  0.46016574  0.11791130  0.48675728    -0.25300
C778        C  0.46094616  0.14222470  0.48495325     0.37200
C779        C  0.43744428  0.14575778  0.06327413     0.06800
F780        F  0.43568890  0.09605956  0.06570765    -0.19100
H781        H  0.45064394  0.08355624  0.51727915     0.16600
F782        F  0.46878465  0.15792279  0.45823356    -0.22800
H783        H  0.45435946  0.16945702  0.50883000     0.18400
C784        C  0.45250030  0.17185476  0.07196555     0.26400
C785        C  0.44335879  0.18151561  0.09484619    -0.11300
C786        C  0.41939223  0.16529735  0.11006813    -0.25300
C787        C  0.40491053  0.13894825  0.10253457     0.37300
C788        C  0.41382057  0.12933257  0.07930449    -0.26900
F789        F  0.47578280  0.18825226  0.05781969    -0.19100
H790        H  0.45438537  0.20211653  0.09943551     0.16600
F791        F  0.38147739  0.12287754  0.11652361    -0.22800
H792        H  0.40161704  0.10930684  0.07287312     0.18400
N793        N  0.41992223  0.19739663  0.64919821    -0.02100
C794        C  0.40612213  0.21030282  0.64875441     0.00500
C795        C  0.38540119  0.19901504  0.62835982    -0.22400
C796        C  0.38677191  0.17928310  0.61487572    -0.22600
C797        C  0.40816039  0.17890454  0.62755711     0.00400
H798        H  0.37273793  0.20658027  0.62089025     0.14200
H799        H  0.37513635  0.16830981  0.59544314     0.14200
N800        N  0.24643693  0.84406880  0.87523194    -0.02100
C801        C  0.26192658  0.87051830  0.87382301     0.00500
C802        C  0.25754797  0.88132363  0.84633623    -0.22400
C803        C  0.23880129  0.86102313  0.83019438    -0.22600
C804        C  0.23237889  0.83848188  0.84832100     0.00400
H805        H  0.26837105  0.90158930  0.83777139     0.14200
H806        H  0.23195248  0.86235430  0.80677637     0.14200
N807        N  0.89980844  0.20204011  0.66021750    -0.02100
C808        C  0.88570814  0.17542165  0.66060700     0.00500
C809        C  0.89419562  0.16613089  0.63706569    -0.22400
C810        C  0.91409305  0.18743141  0.62159431    -0.22600
C811        C  0.91718653  0.20912843  0.63611488     0.00400
H812        H  0.88526464  0.14613824  0.63006629     0.14200
H813        H  0.92377921  0.18725368  0.60038246     0.14200
N814        N  0.71082328  0.84563677  0.90269352    -0.02100
C815        C  0.72020525  0.82876686  0.90225542     0.00500
C816        C  0.73404975  0.83023372  0.92927414    -0.22400
C817        C  0.73353617  0.84876876  0.94687446    -0.22600
C818        C  0.71931317  0.85803447  0.93012131     0.00400
H819        H  0.74295508  0.81851101  0.93584723     0.14200
H820        H  0.74193422  0.85431495  0.96992140     0.14200
N821        N  0.89380547  0.67926532  0.60281023    -0.02100
C822        C  0.92027456  0.69264233  0.60303707     0.00500
C823        C  0.92989068  0.70938795  0.57653672    -0.22400
C824        C  0.90887263  0.70621692  0.55926606    -0.22600
C825        C  0.88708245  0.68769535  0.57577187     0.00400
H826        H  0.95001520  0.72060017  0.56892514     0.14200
H827        H  0.90943520  0.71474653  0.53590729     0.14200
N828        N  0.25260126  0.38299134  0.85952786    -0.02100
C829        C  0.22610874  0.37058522  0.85837847     0.00500
C830        C  0.21736140  0.35733563  0.83096607    -0.22400
C831        C  0.23884266  0.36168956  0.81451029    -0.22600
C832        C  0.26009175  0.37742586  0.83228892     0.00400
H833        H  0.19752596  0.34719961  0.82269282     0.14200
H834        H  0.23907766  0.35552425  0.79108931     0.14200
O835        O  0.96543240  0.33044295  0.85531387    -0.77100
C836        C  0.98875465  0.34166271  0.95817342     0.83900
O837        O  0.96035854  0.40305578  0.87854709    -0.78200
O838        O  0.03924656  0.42951718  0.94314029    -0.79700
O839        O  0.05862888  0.38425929  0.86173927    -0.79500
O840        O  0.99976035  0.35160682  0.82318738    -0.78100
Zn841      Zn  0.97331951  0.35380775  0.89255386     1.55700
O842        O  0.06315148  0.39365249  0.91233868    -0.79500
Cd843      Cd  0.02471638  0.38477435  0.84800951     1.59700
Cd844      Cd  0.99928406  0.41567307  0.88068349     1.59600
O845        O  0.03631711  0.41848009  0.81854377    -0.79500
O846        O  0.00638578  0.38622461  0.88645204    -1.90000
Cd847      Cd  0.02925065  0.39348622  0.92428796     1.59900
O848        O  0.01742456  0.43802734  0.84135196    -0.79500
O849        O  0.01011748  0.36338478  0.95835655    -0.78100
C850        C  0.94077485  0.38090916  0.88603411     0.84400
C851        C  0.97704375  0.33226348  0.82950832     0.84100
O852        O  0.97379859  0.33544020  0.93429622    -0.77100
C853        C  0.07146308  0.38900535  0.88741710     0.84900
O854        O  0.94322231  0.36105214  0.89380665    -0.77200
C855        C  0.03186021  0.43745438  0.82013909     0.85000
C856        C  0.03131115  0.44582078  0.93687700     0.85300
O857        O  0.01490094  0.44202235  0.91523911    -0.79600
O858        O  0.17082659  0.71471841  0.58432385    -0.77100
C859        C  0.15382711  0.70289232  0.68947969     0.83900
O860        O  0.17908215  0.64313484  0.61745673    -0.78200
O861        O  0.10047494  0.61666462  0.68087637    -0.79700
O862        O  0.07907878  0.66220641  0.59761902    -0.79500
O863        O  0.13625708  0.69289103  0.55399544    -0.78100
Zn864      Zn  0.16498911  0.69181737  0.62390641     1.55700
O865        O  0.07848178  0.65621259  0.64989033    -0.79500
Cd866      Cd  0.11158362  0.65995860  0.58314294     1.59700
Cd867      Cd  0.13972927  0.63029248  0.61712666     1.59600
O868        O  0.09829439  0.62557586  0.55824447    -0.79500
O869        O  0.13216292  0.65937140  0.62092308    -1.90000
Cd870      Cd  0.11132835  0.65324799  0.65997674     1.59900
O871        O  0.12321974  0.60977757  0.57757520    -0.79500
O872        O  0.13268593  0.68108098  0.69228674    -0.78100
C873        C  0.19835574  0.66555150  0.62259379     0.84400
C874        C  0.15885454  0.71254525  0.55840265     0.84100
O875        O  0.16698577  0.71016259  0.66383340    -0.77100
C876        C  0.06873490  0.66008324  0.62455521     0.84900
O877        O  0.19533160  0.68515701  0.62623987    -0.77200
C878        C  0.10607158  0.60884809  0.55836430     0.85000
C879        C  0.10740713  0.59981616  0.67616180     0.85300
O880        O  0.12296276  0.60310048  0.65393340    -0.79600
O881        O  0.47942227  0.12598382  0.85486954    -0.77100
C882        C  0.47074681  0.10903019  0.95924493     0.83900
O883        O  0.56000333  0.13752099  0.88801257    -0.78200
O884        O  0.50668320  0.05781425  0.95805623    -0.79700
O885        O  0.44581538  0.03438304  0.87091628    -0.79500
O886        O  0.47116163  0.09270193  0.82530404    -0.78100
Zn887      Zn  0.49706451  0.12185349  0.89431976     1.55700
O888        O  0.44786066  0.03242991  0.92330264    -0.79500
Cd889      Cd  0.47990397  0.06901999  0.85656276     1.59700
Cd890      Cd  0.53485368  0.09805045  0.89449971     1.59600
O891        O  0.50395863  0.05770204  0.83439052    -0.79500
O892        O  0.49780200  0.08921719  0.89459011    -1.90000
Cd893      Cd  0.48113542  0.06704974  0.93380321     1.59900
O894        O  0.54120675  0.07883432  0.86018791    -0.79500
O895        O  0.47052464  0.08729681  0.96309297    -0.78100
C896        C  0.55633257  0.15693008  0.88941207     0.84400
C897        C  0.47161164  0.11432603  0.82915686     0.84100
O898        O  0.47934220  0.12326426  0.93382754    -0.77100
C899        C  0.43649614  0.02260693  0.89769334     0.84900
O900        O  0.53356558  0.15363734  0.89297505    -0.77200
C901        C  0.52751494  0.06330126  0.83920911     0.85000
C902        C  0.53137311  0.06806490  0.95670356     0.85300
O903        O  0.54504081  0.08555847  0.93566942    -0.79600
O904        O  0.66304901  0.92969398  0.61506099    -0.77100
C905        C  0.66235606  0.92903144  0.72080398     0.83900
O906        O  0.57957924  0.91360289  0.65069057    -0.78200
O907        O  0.63385495  0.98794701  0.71885128    -0.79700
O908        O  0.69640296  0.01784666  0.63708703    -0.79500
O909        O  0.67246692  0.96696472  0.58817132    -0.78100
Zn910      Zn  0.64245560  0.92770473  0.65361205     1.55700
O911        O  0.69363455  0.01008335  0.68910521    -0.79500
Cd912      Cd  0.66229138  0.98598517  0.62042118     1.59700
Cd913      Cd  0.60553062  0.95258967  0.65607757     1.59600
O914        O  0.63924115  0.99937477  0.59724325    -0.79500
O915        O  0.64228500  0.96045267  0.65635811    -1.90000
Cd916      Cd  0.65765549  0.97681621  0.69672933     1.59900
O917        O  0.60040461  0.97328732  0.61936735    -0.79500
O918        O  0.66284512  0.95041987  0.72574659    -0.78100
C919        C  0.58316578  0.89432599  0.64728332     0.84400
C920        C  0.67222344  0.94514528  0.59061998     0.84100
O921        O  0.65616655  0.91890617  0.69400947    -0.77100
C922        C  0.70585988  0.02402869  0.66464308     0.84900
O923        O  0.60595250  0.89720501  0.64782191    -0.77200
C924        C  0.61490339  0.99137590  0.59937897     0.85000
C925        C  0.60972625  0.98060321  0.71613043     0.85300
O926        O  0.59571060  0.96497980  0.69536141    -0.79600
C927        C  0.71672095  0.33642266  0.87189436     0.81600
N928        N  0.71485223  0.35798748  0.86355072    -0.76700
C929        C  0.73647605  0.38199342  0.86057978     0.84000
N930        N  0.76021632  0.38433082  0.86579345    -0.76600
C931        C  0.76246687  0.36284643  0.87324100     0.84100
N932        N  0.74061744  0.33905346  0.87648874    -0.78400
C933        C  0.42498005  0.71796958  0.61483808     0.81600
N934        N  0.40062468  0.71419840  0.61861371    -0.76700
C935        C  0.37943858  0.69025023  0.61509619     0.84000
N936        N  0.38284066  0.66998693  0.60787816    -0.76600
C937        C  0.40707706  0.67345675  0.60389146     0.84100
N938        N  0.42803001  0.69760904  0.60716055    -0.78400
O939        O  0.38187684  0.43949550  0.55881099    -0.77100
C940        C  0.39393612  0.43509828  0.66417752     0.83900
O941        O  0.45348510  0.51942742  0.58219965    -0.78200
O942        O  0.48125777  0.46873372  0.65056753    -0.79700
O943        O  0.43273214  0.39775538  0.57932549    -0.79500
O944        O  0.40286206  0.42496584  0.53041586    -0.78100
Zn945      Zn  0.40483694  0.45659354  0.59602455     1.55700
O946        O  0.44109141  0.40718964  0.62971263    -0.79500
Cd947      Cd  0.43530963  0.43273414  0.55876283     1.59700
Cd948      Cd  0.46598328  0.49230248  0.58389069     1.59600
O949        O  0.46942435  0.45303255  0.53089471    -0.79500
O950        O  0.43706895  0.45588132  0.59296436    -1.90000
Cd951      Cd  0.44419344  0.44318099  0.63425926     1.59900
O952        O  0.48521950  0.49452822  0.54359425    -0.79500
O953        O  0.41635096  0.43725304  0.66742772    -0.78100
C954        C  0.43126087  0.51648728  0.58865874     0.84400
C955        C  0.38371623  0.42889358  0.53435497     0.84100
O956        O  0.38644196  0.43984310  0.63754799    -0.77100
C957        C  0.43603455  0.39154978  0.60775837     0.84900
O958        O  0.41175532  0.49389639  0.59498633    -0.77200
C959        C  0.48626692  0.47741861  0.52774161     0.85000
C960        C  0.49865353  0.49166746  0.64091997     0.85300
O961        O  0.49509624  0.50327921  0.61685720    -0.79600
O962        O  0.76483403  0.61831579  0.80513404    -0.77100
C963        C  0.75253078  0.62211623  0.90807373     0.83900
O964        O  0.69071723  0.53716581  0.83658996    -0.78200
O965        O  0.66637291  0.58935274  0.89876431    -0.79700
O966        O  0.70992891  0.65693472  0.81203730    -0.79500
O967        O  0.74440625  0.63340106  0.77345567    -0.78100
Zn968      Zn  0.74066791  0.59953061  0.84250160     1.55700
O969        O  0.70313568  0.64994909  0.86393392    -0.79500
Cd970      Cd  0.71023305  0.62300337  0.79914262     1.59700
Cd971      Cd  0.67856621  0.56446398  0.83521817     1.59600
O972        O  0.67830334  0.60139450  0.76974654    -0.79500
O973        O  0.70842517  0.60080295  0.83815094    -1.90000
Cd974      Cd  0.70215768  0.61510112  0.87657436     1.59900
O975        O  0.65957195  0.56150805  0.79351316    -0.79500
O976        O  0.73160023  0.62324732  0.90897095    -0.78100
C977        C  0.71334455  0.53987932  0.83922839     0.84400
C978        C  0.76369599  0.62979060  0.77933655     0.84100
O979        O  0.75852789  0.61413791  0.88398551    -0.77100
C980        C  0.70660012  0.66405382  0.83864917     0.84900
O981        O  0.73341252  0.56229696  0.84188424    -0.77200
C982        C  0.66090788  0.57714424  0.77081320     0.85000
C983        C  0.64897629  0.56586591  0.89366415     0.85300
O984        O  0.65131696  0.55399267  0.87092723    -0.79600
C985        C  0.55052114  0.51026120  0.70373466    -0.26800
C986        C  0.57246359  0.53096017  0.68831826     0.06800
C987        C  0.56998292  0.53855540  0.65712174     0.26400
C988        C  0.54589610  0.52587687  0.64202750    -0.11300
C989        C  0.52390197  0.50516590  0.65753553    -0.25300
C990        C  0.52656629  0.49740415  0.68859637     0.37200
C991        C  0.59763012  0.54386669  0.70528205     0.06800
F992        F  0.59095093  0.55759586  0.64088955    -0.19100
H993        H  0.54458505  0.53198900  0.61790817     0.16600
F994        F  0.50597137  0.47767178  0.70463255    -0.22800
H995        H  0.55190357  0.50411389  0.72781543     0.18400
C996        C  0.61193120  0.57118978  0.70800467     0.26400
C997        C  0.63349229  0.58228881  0.72804012    -0.11300
C998        C  0.64099714  0.56633110  0.74577408    -0.25300
C999        C  0.62761643  0.53921798  0.74132038     0.37300
C1000       C  0.60626642  0.52825106  0.72137325    -0.26900
F1001       F  0.60409645  0.58696325  0.69301110    -0.19100
H1002       H  0.64344134  0.60317989  0.73092300     0.16600
F1003       F  0.63474439  0.52305658  0.75682546    -0.22800
H1004       H  0.59591597  0.50725705  0.71917439     0.18400
C1005       C  0.55658544  0.51174419  0.50300157    -0.26800
C1006       C  0.55506806  0.51255453  0.97180748     0.06800
C1007       C  0.53043163  0.49648690  0.95856400     0.26400
C1008       C  0.50770569  0.48508444  0.47480276    -0.11300
C1009       C  0.50943561  0.48672356  0.50757562    -0.25300
C1010       C  0.53405562  0.49994244  0.52152293     0.37200
C1011       C  0.57924886  0.52630265  0.95203092     0.06800
F1012       F  0.52798955  0.49362825  0.92704829    -0.19100
H1013       H  0.48885991  0.47534346  0.46368301     0.16600
F1014       F  0.53624815  0.50157390  0.55325926    -0.22800
H1015       H  0.57530493  0.52169174  0.51439178     0.18400
C1016       C  0.59746742  0.55298230  0.95530344     0.26400
C1017       C  0.62014047  0.56558836  0.93666822    -0.11300
C1018       C  0.62526747  0.55200393  0.91427960    -0.25300
C1019       C  0.60717103  0.52517507  0.91145347     0.37300
C1020       C  0.58454734  0.51262639  0.93007896    -0.26900
F1021       F  0.59305642  0.56712690  0.97593362    -0.19100
H1022       H  0.63353014  0.58617093  0.93950404     0.16600
F1023       F  0.61128619  0.51082287  0.89085183    -0.22800
H1024       H  0.57122884  0.49198076  0.92756238     0.18400
C1025       C  0.39345686  0.60462347  0.58966993    -0.26800
C1026       C  0.41826387  0.60734010  0.59329877     0.06800
C1027       C  0.43953398  0.63221748  0.59849803     0.26400
C1028       C  0.43580606  0.65365745  0.60104248    -0.11300
C1029       C  0.41081947  0.65082335  0.59856788    -0.25300
C1030       C  0.38967496  0.62603378  0.59221189     0.37200
C1031       C  0.42166412  0.58409615  0.59210882     0.06800
F1032       F  0.46379539  0.63564174  0.60241607    -0.19100
H1033       H  0.45252980  0.67239358  0.60580211     0.16600
F1034       F  0.36528351  0.62229023  0.58848842    -0.22800
H1035       H  0.37688475  0.58577684  0.58489250     0.18400
C1036       C  0.40545836  0.56092330  0.61004025     0.26400
C1037       C  0.40850595  0.53898907  0.60845047    -0.11300
C1038       C  0.42801042  0.53979017  0.58938830    -0.25300
C1039       C  0.44440401  0.56306370  0.57169359     0.37300
C1040       C  0.44111015  0.58489800  0.57295877    -0.26900
F1041       F  0.38712545  0.55970246  0.62978407    -0.19100
H1042       H  0.39587867  0.52147201  0.62267600     0.16600
F1043       F  0.46322038  0.56456731  0.55259110    -0.22800
H1044       H  0.45360656  0.60240139  0.55864464     0.18400
C1045       C  0.69988491  0.46986378  0.84870031    -0.26800
C1046       C  0.72408632  0.47286789  0.84045761     0.06800
C1047       C  0.74424709  0.49778812  0.83033980     0.26400
C1048       C  0.74055027  0.51941587  0.82993987    -0.11300
C1049       C  0.71656839  0.51657122  0.83901944    -0.25300
C1050       C  0.69605460  0.49143308  0.84792062     0.37200
C1051       C  0.72829721  0.45009346  0.84368128     0.06800
F1052       F  0.76743262  0.50119023  0.82052437    -0.19100
H1053       H  0.75647325  0.53843935  0.82231782     0.16600
F1054       F  0.67259871  0.48777740  0.85699997    -0.22800
H1055       H  0.68409653  0.45084724  0.85660125     0.18400
C1056       C  0.74952487  0.45158176  0.86074213     0.26400
C1057       C  0.75246823  0.42956380  0.86527583    -0.11300
C1058       C  0.73407109  0.40552437  0.85347637    -0.25300
C1059       C  0.71303448  0.40411799  0.83599768     0.37300
C1060       C  0.71025212  0.42623648  0.83117113    -0.26900
F1061       F  0.76670743  0.47394513  0.87442571    -0.19100
H1062       H  0.76867682  0.43110371  0.87907312     0.16600
F1063       F  0.69526079  0.38145957  0.82335933    -0.22800
H1064       H  0.69385759  0.42470802  0.81779830     0.18400
C1065       C  0.54024709  0.82101406  0.63843015    -0.26800
C1066       C  0.51590739  0.81895285  0.63259180     0.06800
C1067       C  0.51391330  0.84173896  0.63151693     0.26400
C1068       C  0.53580663  0.86600621  0.63639529    -0.11300
C1069       C  0.56023599  0.86819443  0.64231567    -0.25300
C1070       C  0.56223861  0.84533182  0.64317707     0.37200
C1071       C  0.49264385  0.79304321  0.62796919     0.06800
F1072       F  0.49088714  0.84064282  0.62503609    -0.19100
H1073       H  0.53360271  0.88318523  0.63523552     0.16600
F1074       F  0.58528088  0.84629254  0.64901072    -0.22800
H1075       H  0.54216956  0.80366635  0.63972416     0.18400
C1076       C  0.49312512  0.77600648  0.60649156     0.26400
C1077       C  0.47109150  0.75161251  0.60248348    -0.11300
C1078       C  0.44807294  0.74386533  0.61945526    -0.25300
C1079       C  0.44758175  0.76091622  0.64094328     0.37300
C1080       C  0.46971486  0.78518886  0.64519035    -0.26900
F1081       F  0.51466683  0.78321466  0.58876701    -0.19100
H1082       H  0.47190690  0.73891194  0.58565919     0.16600
F1083       F  0.42602196  0.75385710  0.65856998    -0.22800
H1084       H  0.46904262  0.79779129  0.66226965     0.18400
C1085       C  0.60018593  0.23060816  0.89366688    -0.26800
C1086       C  0.62390077  0.23412458  0.88236461     0.06800
C1087       C  0.62501924  0.21220635  0.87304922     0.26400
C1088       C  0.60298677  0.18736098  0.87538559    -0.11300
C1089       C  0.57922427  0.18372361  0.88674389    -0.25300
C1090       C  0.57799978  0.20572525  0.89572423     0.37200
C1091       C  0.64743337  0.26052836  0.88048360     0.06800
F1092       F  0.64729206  0.21484126  0.86101541    -0.19100
H1093       H  0.60453785  0.17091636  0.86797908     0.16600
F1094       F  0.55561319  0.20322517  0.90715093    -0.22800
H1095       H  0.59892142  0.24713223  0.90137367     0.18400
C1096       C  0.64651442  0.28222543  0.86654500     0.26400
C1097       C  0.66900041  0.30679544  0.86419087    -0.11300
C1098       C  0.69293428  0.31029440  0.87548108    -0.25300
C1099       C  0.69371928  0.28857877  0.88987231     0.37300
C1100       C  0.67118075  0.26407623  0.89237370    -0.26900
F1101       F  0.62407533  0.27954354  0.85422900    -0.19100
H1102       H  0.66769267  0.32301566  0.85294056     0.16600
F1103       F  0.71610909  0.29089210  0.90188119    -0.22800
H1104       H  0.67227473  0.24778732  0.90380071     0.18400
C1105       C  0.58183855  0.06639330  0.01150579    -0.26800
C1106       C  0.56618410  0.03762065  0.51980152     0.06800
C1107       C  0.54246458  0.02082563  0.50527606     0.26400
C1108       C  0.53345113  0.03178082  0.98649872    -0.11300
C1109       C  0.54456785  0.05866791  0.97916082    -0.25300
C1110       C  0.56902265  0.07596743  0.99159505     0.37200
C1111       C  0.57931672  0.02666525  0.54050361     0.06800
F1112       F  0.53196265  0.99444841  0.50818790    -0.19100
H1113       H  0.51179707  0.01772241  0.47519039     0.16600
F1114       F  0.58027592  0.10213580  0.98496416    -0.22800
H1115       H  0.60025668  0.08011499  0.02159012     0.18400
C1116       C  0.60630415  0.03619795  0.53853404     0.26400
C1117       C  0.61785606  0.02469507  0.55758462    -0.11300
C1118       C  0.60274496  0.00340580  0.57875167    -0.25300
C1119       C  0.57573893  0.99403626  0.58062781     0.37300
C1120       C  0.56442457  0.00582748  0.56213324    -0.26900
F1121       F  0.62552568  0.05547055  0.01497249    -0.19100
H1122       H  0.63862477  0.03239021  0.55561764     0.16600
F1123       F  0.55995408  0.97333005  0.60022224    -0.22800
H1124       H  0.54376341  0.99850300  0.56477096     0.18400
C1125       C  0.56012395  0.98819249  0.76272843    -0.26800
C1126       C  0.57433976  0.01472313  0.76965789     0.06800
C1127       C  0.60063284  0.02944253  0.76012155     0.26400
C1128       C  0.61225679  0.01784389  0.74395972    -0.11300
C1129       C  0.59785872  0.99153606  0.73636818    -0.25300
C1130       C  0.57164462  0.97672990  0.74600358     0.37200
C1131       C  0.56193988  0.02689205  0.78720586     0.06800
F1132       F  0.61486992  0.05533438  0.76534065    -0.19100
H1133       H  0.63231759  0.02976357  0.73626006     0.16600
F1134       F  0.55723685  0.95111340  0.73952799    -0.22800
H1135       H  0.54005957  0.97627223  0.77037221     0.18400
C1136       C  0.53735396  0.02349613  0.77887879     0.26400
C1137       C  0.52627038  0.03544761  0.79560141    -0.11300
C1138       C  0.53946821  0.05108566  0.82087164    -0.25300
C1139       C  0.56404093  0.05425561  0.82920000     0.37300
C1140       C  0.57492974  0.04221671  0.81263970    -0.26900
F1141       F  0.52428025  0.00912783  0.75413450    -0.19100
H1142       H  0.50737544  0.03252673  0.78864831     0.16600
F1143       F  0.57759846  0.06865611  0.85372559    -0.22800
H1144       H  0.59357936  0.04468791  0.82001708     0.18400
C1145       C  0.27026857  0.69289525  0.63944126    -0.26800
C1146       C  0.27543134  0.67532037  0.62440202     0.06800
C1147       C  0.25486407  0.65413038  0.60970170     0.26400
C1148       C  0.22986771  0.65091003  0.60971258    -0.11300
C1149       C  0.22482714  0.66886003  0.62398895    -0.25300
C1150       C  0.24530489  0.68986093  0.63913096     0.37200
C1151       C  0.30228957  0.67945691  0.62340953     0.06800
F1152       F  0.25907575  0.63704164  0.59424412    -0.19100
H1153       H  0.21453560  0.63463787  0.59778765     0.16600
F1154       F  0.24121064  0.70728680  0.65400384    -0.22800
H1155       H  0.28562499  0.70904013  0.65150707     0.18400
C1156       C  0.32356522  0.70420121  0.61484338     0.26400
C1157       C  0.34859251  0.70761737  0.61275222    -0.11300
C1158       C  0.35292267  0.68642354  0.61866547    -0.25300
C1159       C  0.33169240  0.66173721  0.62759911     0.37300
C1160       C  0.30673446  0.65842585  0.63017001    -0.26900
F1161       F  0.32006352  0.72488881  0.60727444    -0.19100
H1162       H  0.36452735  0.72678570  0.60564110     0.16600
F1163       F  0.33503215  0.64084689  0.63435303    -0.22800
H1164       H  0.29079807  0.63931563  0.63746379     0.18400
C1165       C  0.88526871  0.39371038  0.86696705    -0.26800
C1166       C  0.86477985  0.37347287  0.88479320     0.06800
C1167       C  0.86943970  0.35556918  0.90299854     0.26400
C1168       C  0.89411200  0.35792909  0.90313202    -0.11300
C1169       C  0.91464859  0.37833104  0.88548282    -0.25300
C1170       C  0.90997019  0.39628163  0.86738621     0.37200
C1171       C  0.83850320  0.37070352  0.88326542     0.06800
F1172       F  0.85029754  0.33608858  0.92113222    -0.19100
H1173       H  0.89723796  0.34398337  0.91742798     0.16600
F1174       F  0.92904495  0.41595787  0.84936677    -0.22800
H1175       H  0.88203937  0.40734357  0.85216019     0.18400
C1176       C  0.83504571  0.39248282  0.88569437     0.26400
C1177       C  0.81031515  0.38976894  0.88250790    -0.11300
C1178       C  0.78849229  0.36528989  0.87717184    -0.25300
C1179       C  0.79197507  0.34344829  0.87518894     0.37300
C1180       C  0.81672880  0.34625396  0.87803600    -0.26900
F1181       F  0.85550870  0.41633908  0.89155913    -0.19100
H1182       H  0.80825168  0.40687706  0.88443606     0.16600
F1183       F  0.77168175  0.31946151  0.86949687    -0.22800
H1184       H  0.81895016  0.32931426  0.87539448     0.18400
C1185       C  0.06614040  0.49646486  0.49533091    -0.26800
C1186       C  0.06305048  0.51856963  0.98390772     0.06800
C1187       C  0.04905031  0.51494241  0.95583278     0.26400
C1188       C  0.03844792  0.49111119  0.94124734    -0.11300
C1189       C  0.04180476  0.47040352  0.95396821    -0.25300
C1190       C  0.05589043  0.47409065  0.98203343     0.37200
C1191       C  0.07152937  0.54091780  0.50220731     0.06800
F1192       F  0.04651309  0.53475314  0.94172754    -0.19100
H1193       H  0.02810077  0.48914882  0.91940015     0.16600
F1194       F  0.06352349  0.45546712  0.48946488    -0.22800
H1195       H  0.07874491  0.49932660  0.51527727     0.18400
C1196       C  0.05655108  0.55182304  0.51212601     0.26400
C1197       C  0.06811204  0.57479312  0.52888288    -0.11300
C1198       C  0.09462150  0.58699350  0.53665188    -0.25300
C1199       C  0.10958181  0.57631537  0.52620927     0.37300
C1200       C  0.09819176  0.55375249  0.50907655    -0.26900
F1201       F  0.03051465  0.53955349  0.50724245    -0.19100
H1202       H  0.05604960  0.58229924  0.53714047     0.16600
F1203       F  0.13531448  0.58758646  0.53279578    -0.22800
H1204       H  0.11270309  0.54641365  0.00359641     0.18400
C1205       C  0.06639373  0.50775032  0.78979558    -0.26800
C1206       C  0.06553320  0.50545850  0.75713022     0.06800
C1207       C  0.05472485  0.48037912  0.74511067     0.26400
C1208       C  0.04455571  0.45804862  0.76562592    -0.11300
C1209       C  0.04459894  0.46050791  0.79818627    -0.25300
C1210       C  0.05580310  0.48555842  0.81013162     0.37200
C1211       C  0.07589486  0.52938536  0.73605360     0.06800
F1212       F  0.05304578  0.47741056  0.71360352    -0.19100
H1213       H  0.03578559  0.43886568  0.75609351     0.16600
F1214       F  0.05665738  0.48857878  0.84162559    -0.22800
H1215       H  0.07522681  0.52682482  0.79963499     0.18400
C1216       C  0.06922540  0.54874485  0.74086523     0.26400
C1217       C  0.07968577  0.57158870  0.72148854    -0.11300
C1218       C  0.09691110  0.57562488  0.69682372    -0.25300
C1219       C  0.10351728  0.55614401  0.69199162     0.37300
C1220       C  0.09312972  0.53335984  0.71152128    -0.26900
F1221       F  0.05218357  0.54539568  0.76394599    -0.19100
H1222       H  0.07410315  0.58606564  0.72575283     0.16600
F1223       F  0.11999935  0.55894500  0.66847444    -0.22800
H1224       H  0.09886182  0.51892061  0.70771080     0.18400
C1225       C  0.13520526  0.39387151  0.91644367    -0.26800
C1226       C  0.14329065  0.38655996  0.89000995     0.06800
C1227       C  0.12826688  0.38093387  0.86258854     0.26400
C1228       C  0.10529842  0.38218232  0.86178554    -0.11300
C1229       C  0.09662687  0.38889659  0.88840621    -0.25300
C1230       C  0.11209524  0.39501594  0.91579493     0.37200
C1231       C  0.16647768  0.38320483  0.89107197     0.06800
F1232       F  0.13576065  0.37395945  0.83658459    -0.19100
H1233       H  0.09410069  0.37749033  0.84032812     0.16600
F1234       F  0.10486743  0.40183151  0.94213527    -0.22800
H1235       H  0.14653603  0.39818555  0.93779479     0.18400
C1236       C  0.19171098  0.40468541  0.88650713     0.26400
C1237       C  0.21255847  0.40061454  0.87994849    -0.11300
C1238       C  0.20834523  0.37510224  0.87782371    -0.25300
C1239       C  0.18359385  0.35378389  0.88564009     0.37300
C1240       C  0.16288789  0.35784853  0.89205698    -0.26900
F1241       F  0.19568778  0.42944025  0.88552531    -0.19100
H1242       H  0.23129853  0.41729853  0.87345661     0.16600
F1243       F  0.17886179  0.32888623  0.88391960    -0.22800
H1244       H  0.14359863  0.34109149  0.89566907     0.18400
C1245       C  0.27907181  0.38292286  0.94053881    -0.26800
C1246       C  0.30475062  0.40368319  0.93711002     0.06800
C1247       C  0.31192852  0.41949941  0.90906530     0.26400
C1248       C  0.29401960  0.41400775  0.88461386    -0.11300
C1249       C  0.26878906  0.39220669  0.88713454    -0.25300
C1250       C  0.26131908  0.37706869  0.91581606     0.37200
C1251       C  0.32406812  0.40840346  0.96249240     0.06800
F1252       F  0.33637133  0.44015954  0.90520907    -0.19100
H1253       H  0.30018328  0.42644804  0.86331903     0.16600
F1254       F  0.23746033  0.35547096  0.91922974    -0.22800
H1255       H  0.27309316  0.37047693  0.96193134     0.18400
C1256       C  0.31999082  0.41382083  0.49453378     0.26400
C1257       C  0.33887757  0.41865043  0.51757301    -0.11300
C1258       C  0.36331525  0.42186830  0.50973593    -0.25300
C1259       C  0.36835215  0.42001488  0.47802811     0.37300
C1260       C  0.34711356  0.40811088  0.95619309    -0.26900
F1261       F  0.29771349  0.41379852  0.00000772    -0.19100
H1262       H  0.33438955  0.42007852  0.54168175     0.16600
F1263       F  0.39181535  0.42365992  0.46903142    -0.22800
H1264       H  0.35072697  0.40405792  0.93287291     0.18400
C1265       C  0.31980292  0.38548270  0.79260189    -0.26800
C1266       C  0.32723072  0.40863109  0.77405674     0.06800
C1267       C  0.31551162  0.42370500  0.77986085     0.26400
C1268       C  0.29521888  0.41457695  0.80176151    -0.11300
C1269       C  0.28648538  0.39050177  0.81851462    -0.25300
C1270       C  0.29943728  0.37637399  0.81458598     0.37200
C1271       C  0.34459479  0.41527691  0.74627666     0.06800
F1272       F  0.32268850  0.44653964  0.76303793    -0.19100
H1273       H  0.28505993  0.42541980  0.80406262     0.16600
F1274       F  0.29102758  0.35281990  0.83018082    -0.22800
H1275       H  0.32844900  0.37349135  0.78845449     0.18400
C1276       C  0.36879196  0.41638408  0.74862699     0.26400
C1277       C  0.38457122  0.42251295  0.72184219    -0.11300
C1278       C  0.37647541  0.42747243  0.69215171    -0.25300
C1279       C  0.35191721  0.42575686  0.68986690     0.37300
C1280       C  0.33629453  0.41974839  0.71662508    -0.26900
F1281       F  0.37744459  0.41215676  0.77689095    -0.19100
H1282       H  0.40328639  0.42360244  0.72446584     0.16600
F1283       F  0.34286165  0.42994727  0.66187604    -0.22800
H1284       H  0.31742508  0.41834197  0.71410478     0.18400
C1285       C  0.01515914  0.67100925  0.65604992    -0.26800
C1286       C  0.99953036  0.66706765  0.62943274     0.06800
C1287       C  0.00667111  0.66061385  0.60135862     0.26400
C1288       C  0.02906690  0.65835693  0.59997295    -0.11300
C1289       C  0.04476515  0.66222000  0.62658086    -0.25300
C1290       C  0.03737863  0.66837192  0.65484817     0.37200
C1291       C  0.97692345  0.67151269  0.63015146     0.06800
F1292       F  0.99250426  0.65745301  0.57486036    -0.19100
H1293       H  0.03415055  0.65360793  0.57793646     0.16600
F1294       F  0.05197030  0.67259038  0.68115832    -0.22800
H1295       H  0.01017196  0.67624866  0.67780562     0.18400
C1296       C  0.95205682  0.65226982  0.62081385     0.26400
C1297       C  0.93215051  0.65836272  0.61604454    -0.11300
C1298       C  0.93683952  0.68381657  0.62000514    -0.25300
C1299       C  0.96103581  0.70240857  0.63179807     0.37300
C1300       C  0.98078263  0.69618270  0.63713157    -0.26900
F1301       F  0.94747778  0.62803544  0.61457201    -0.19100
H1302       H  0.91386751  0.64389045  0.60639133     0.16600
F1303       F  0.96625173  0.72724156  0.63562395    -0.22800
H1304       H  0.99972495  0.71126855  0.64446789     0.18400
C1305       C  0.84355558  0.63901960  0.66542177    -0.26800
C1306       C  0.84267204  0.65870473  0.68177251     0.06800
C1307       C  0.86032794  0.68502778  0.67310482     0.26400
C1308       C  0.87774929  0.69143408  0.64801044    -0.11300
C1309       C  0.87796166  0.67183874  0.63091822    -0.25300
C1310       C  0.86091302  0.64552126  0.63998422     0.37200
C1311       C  0.82290178  0.65183629  0.70712226     0.06800
F1312       F  0.86064697  0.70457299  0.68884924    -0.19100
H1313       H  0.89072232  0.71182772  0.64118188     0.16600
F1314       F  0.86067425  0.62623836  0.62381715    -0.22800
H1315       H  0.83020494  0.61861131  0.67173909     0.18400
C1316       C  0.80513894  0.66113301  0.70505743     0.26400
C1317       C  0.78631782  0.65428649  0.72870955    -0.11300
C1318       C  0.78484452  0.63820682  0.75520355    -0.25300
C1319       C  0.80297101  0.62920951  0.75737983     0.37300
C1320       C  0.82155793  0.63581750  0.73348010    -0.26900
F1321       F  0.80547971  0.67624354  0.67962909    -0.19100
H1322       H  0.77271072  0.66145396  0.72610245     0.16600
F1323       F  0.80246481  0.61348206  0.78220001    -0.22800
H1324       H  0.83505306  0.62847624  0.73561913     0.18400
C1325       C  0.80794683  0.63420720  0.96435392    -0.26800
C1326       C  0.80346346  0.64665168  0.98875867     0.06800
C1327       C  0.78196825  0.65063553  0.98656178     0.26400
C1328       C  0.76554620  0.64250686  0.96046346    -0.11300
C1329       C  0.77014538  0.63029513  0.93580568    -0.25300
C1330       C  0.79154090  0.62605112  0.93823589     0.37200
C1331       C  0.82135082  0.65321586  0.51561057     0.06800
F1332       F  0.77325755  0.65400767  0.51307404    -0.19100
H1333       H  0.74923724  0.64597389  0.95952663     0.16600
F1334       F  0.79671804  0.61400314  0.91548127    -0.22800
H1335       H  0.82457279  0.63124109  0.96517666     0.18400
C1336       C  0.83209730  0.63825473  0.52870454     0.26400
C1337       C  0.85183065  0.64869473  0.55113361    -0.11300
C1338       C  0.86134269  0.67423785  0.56067598    -0.25300
C1339       C  0.84963551  0.68861243  0.54907891     0.37300
C1340       C  0.82972046  0.67811843  0.52690468    -0.26900
F1341       F  0.82423998  0.61393764  0.51892564    -0.19100
H1342       H  0.86102056  0.63754922  0.55928991     0.16600
F1343       F  0.85855957  0.71341024  0.55783493    -0.22800
H1344       H  0.82195535  0.69014133  0.51713888     0.18400
C1345       C  0.71199088  0.73096307  0.81904872    -0.26800
C1346       C  0.70789140  0.73747380  0.84888640     0.06800
C1347       C  0.70338342  0.71984424  0.87473439     0.26400
C1348       C  0.70288897  0.69626577  0.87090063    -0.11300
C1349       C  0.70684751  0.68938821  0.84116902    -0.25300
C1350       C  0.71129736  0.70705986  0.81508076     0.37200
C1351       C  0.70895629  0.76275617  0.85403046     0.06800
F1352       F  0.70016544  0.72578976  0.90408218    -0.19100
H1353       H  0.69954905  0.68342069  0.89159275     0.16600
F1354       F  0.71507582  0.70140616  0.78583890    -0.22800
H1355       H  0.71558417  0.74433216  0.79882657     0.18400
C1356       C  0.73235782  0.78664344  0.84991922     0.26400
C1357       C  0.73504240  0.80934139  0.86258388    -0.11300
C1358       C  0.71441297  0.80865405  0.87920213    -0.25300
C1359       C  0.69046291  0.78521220  0.88117734     0.37300
C1360       C  0.68775935  0.76259110  0.86849355    -0.26900
F1361       F  0.75339593  0.78744125  0.83665729    -0.19100
H1362       H  0.75391088  0.82695953  0.86169858     0.16600
F1363       F  0.67073308  0.78323982  0.89889173    -0.22800
H1364       H  0.66965499  0.74435071  0.87221035     0.18400
C1365       C  0.67956197  0.88262049  0.96944447    -0.26800
C1366       C  0.69898184  0.90396096  0.98522170     0.06800
C1367       C  0.72518820  0.91261126  0.97809058     0.26400
C1368       C  0.73168614  0.89888499  0.95759425    -0.11300
C1369       C  0.71227899  0.87652670  0.94342631    -0.25300
C1370       C  0.68609267  0.86910441  0.94858159     0.37200
C1371       C  0.69563318  0.91699807  0.51321582     0.06800
F1372       F  0.74664339  0.92651119  0.50071052    -0.19100
H1373       H  0.75197979  0.90474910  0.95431101     0.16600
F1374       F  0.66679514  0.84721592  0.93612304    -0.22800
H1375       H  0.65924547  0.87555744  0.97460289     0.18400
C1376       C  0.68649475  0.93470123  0.50750275     0.26400
C1377       C  0.67996833  0.94476150  0.53277373    -0.11300
C1378       C  0.68191180  0.93685019  0.56408469    -0.25300
C1379       C  0.69151641  0.91944750  0.56960233     0.37300
C1380       C  0.69843388  0.90982773  0.54441941    -0.26900
F1381       F  0.71445131  0.95854392  0.98972364    -0.19100
H1382       H  0.67253838  0.95803554  0.52782927     0.16600
F1383       F  0.69418297  0.91163830  0.59937825    -0.22800
H1384       H  0.70545113  0.89619285  0.54926392     0.18400
C1385       C  0.67076472  0.85328953  0.83769122    -0.26800
C1386       C  0.68905570  0.87742538  0.82310494     0.06800
C1387       C  0.71461201  0.89025705  0.83465582     0.26400
C1388       C  0.72146657  0.87947297  0.86059170    -0.11300
C1389       C  0.70314757  0.85567774  0.87547680    -0.25300
C1390       C  0.67773201  0.84247515  0.86373593     0.37200
C1391       C  0.68138633  0.88996968  0.79697855     0.06800
F1392       F  0.73303945  0.91319475  0.82069879    -0.19100
H1393       H  0.74117249  0.88972504  0.86930059     0.16600
F1394       F  0.65947217  0.81972376  0.87806791    -0.22800
H1395       H  0.65090211  0.84320041  0.82947149     0.18400
C1396       C  0.66873619  0.87656946  0.77002300     0.26400
C1397       C  0.66273651  0.88934744  0.74524534    -0.11300
C1398       C  0.66896573  0.91561001  0.74700461    -0.25300
C1399       C  0.68130136  0.92877538  0.77428082     0.37300
C1400       C  0.68734528  0.91604732  0.79883791    -0.26900
F1401       F  0.66279524  0.85138774  0.76726575    -0.19100
H1402       H  0.65312538  0.87862349  0.72469684     0.16600
F1403       F  0.68799557  0.95415319  0.77718715    -0.22800
H1404       H  0.69677964  0.92667478  0.81951636     0.18400
C1405       C  0.82758871  0.11344993  0.69047632    -0.26800
C1406       C  0.80733468  0.11715408  0.67846227     0.06800
C1407       C  0.81326425  0.14252888  0.66746429     0.26400
C1408       C  0.83918783  0.16301545  0.66579826    -0.11300
C1409       C  0.85958347  0.15851145  0.67489542    -0.25300
C1410       C  0.85343940  0.13383131  0.68856329     0.37200
C1411       C  0.78073732  0.09406824  0.67532181     0.06800
F1412       F  0.79413633  0.14721683  0.65692624    -0.19100
H1413       H  0.84346626  0.18171650  0.65468961     0.16600
F1414       F  0.87271411  0.12878710  0.69733170    -0.22800
H1415       H  0.82361699  0.09422434  0.69928116     0.18400
C1416       C  0.76776037  0.08895545  0.64624421     0.26400
C1417       C  0.74356403  0.06630492  0.64298509    -0.11300
C1418       C  0.73166487  0.04808775  0.66851623    -0.25300
C1419       C  0.74477183  0.05320906  0.69761770     0.37300
C1420       C  0.76897819  0.07584968  0.70080997    -0.26900
F1421       F  0.77893721  0.10529752  0.62053010    -0.19100
H1422       H  0.73420132  0.06297491  0.62026900     0.16600
F1423       F  0.73454797  0.03616508  0.72298466    -0.22800
H1424       H  0.77866126  0.07912375  0.72332396     0.18400
C1425       C  0.96471815  0.28877676  0.76059261    -0.26800
C1426       C  0.93742633  0.27324942  0.76064601     0.06800
C1427       C  0.92321898  0.27722179  0.78375800     0.26400
C1428       C  0.93616788  0.29612965  0.80621503    -0.11300
C1429       C  0.96352717  0.31171027  0.80603615    -0.25300
C1430       C  0.97761425  0.30775490  0.78277139     0.37200
C1431       C  0.92463777  0.25256771  0.73711050     0.06800
F1432       F  0.89691419  0.26236388  0.78528152    -0.19100
H1433       H  0.92470220  0.29870965  0.82368237     0.16600
F1434       F  0.00397559  0.32184805  0.78173604    -0.22800
H1435       H  0.97620345  0.28623481  0.74311370     0.18400
C1436       C  0.90419176  0.25053832  0.71757507     0.26400
C1437       C  0.89503978  0.23300849  0.69306827    -0.11300
C1438       C  0.90587815  0.21710801  0.68788185    -0.25300
C1439       C  0.92535418  0.21830233  0.70824675     0.37300
C1440       C  0.93454692  0.23575208  0.73244567    -0.26900
F1441       F  0.89414245  0.26651102  0.72091778    -0.19100
H1442       H  0.88016838  0.23249983  0.67742170     0.16600
F1443       F  0.93636051  0.20334002  0.70363014    -0.22800
H1444       H  0.95005858  0.23662518  0.74718157     0.18400
C1445       C  0.96816243  0.26473376  0.58563978    -0.26800
C1446       C  0.95387694  0.27633762  0.57356911     0.06800
C1447       C  0.92966115  0.26904399  0.58738116     0.26400
C1448       C  0.91907252  0.24902234  0.61105233    -0.11300
C1449       C  0.93223233  0.23568083  0.62090076    -0.25300
C1450       C  0.95738423  0.24442886  0.60897648     0.37200
C1451       C  0.96266691  0.29342684  0.54427764     0.06800
F1452       F  0.91556944  0.28021069  0.57659389    -0.19100
H1453       H  0.89952010  0.24232352  0.61952859     0.16600
F1454       F  0.97063511  0.23195612  0.61817410    -0.22800
H1455       H  0.98684170  0.27004589  0.57536078     0.18400
C1456       C  0.98736140  0.31591537  0.54174518     0.26400
C1457       C  0.99772601  0.32951040  0.01275071    -0.11300
C1458       C  0.98093798  0.32353143  0.98675471    -0.25300
C1459       C  0.95643200  0.30053717  0.98894417     0.37300
C1460       C  0.94877434  0.28462507  0.01667641    -0.26900
F1461       F  0.00365428  0.32319573  0.56669346    -0.19100
H1462       H  0.01676037  0.34690601  0.01185918     0.16600
F1463       F  0.93963229  0.29342242  0.96450347    -0.22800
H1464       H  0.92979818  0.26713109  0.01781010     0.18400
C1465       C  0.37628253  0.95969624  0.87417242    -0.26800
C1466       C  0.36357066  0.94916064  0.90325624     0.06800
C1467       C  0.37545135  0.96217266  0.93061934     0.26400
C1468       C  0.39932037  0.98566575  0.92869963    -0.11300
C1469       C  0.41172208  0.99688081  0.89939912    -0.25300
C1470       C  0.39998544  0.98329361  0.87212060     0.37200
C1471       C  0.33699805  0.92592360  0.90406478     0.06800
F1472       F  0.36386646  0.95223396  0.95914938    -0.19100
H1473       H  0.40782955  0.99535017  0.95021509     0.16600
F1474       F  0.41116576  0.99284051  0.84333099    -0.22800
H1475       H  0.36736092  0.94999457  0.85278151     0.18400
C1476       C  0.31545758  0.92854983  0.91164558     0.26400
C1477       C  0.29019339  0.90865578  0.90531433    -0.11300
C1478       C  0.28594770  0.88563106  0.89196383    -0.25300
C1479       C  0.30732375  0.88200485  0.88713714     0.37300
C1480       C  0.33266186  0.90213573  0.89285598    -0.26900
F1481       F  0.31898041  0.95139822  0.92211082    -0.19100
H1482       H  0.27407954  0.91212068  0.90839080     0.16600
F1483       F  0.30398648  0.86037943  0.87328495    -0.22800
H1484       H  0.34900648  0.89979044  0.88673128     0.18400
C1485       C  0.20253822  0.80685382  0.94372369    -0.26800
C1486       C  0.21432289  0.79309145  0.95709529     0.06800
C1487       C  0.23807257  0.79765561  0.94418074     0.26400
C1488       C  0.24917420  0.81500633  0.91770632    -0.11300
C1489       C  0.23684113  0.82809419  0.90399989    -0.25300
C1490       C  0.21368960  0.82422477  0.91760952     0.37200
C1491       C  0.20074536  0.77307449  0.98321780     0.06800
F1492       F  0.24985429  0.78443732  0.95619058    -0.19100
H1493       H  0.26692478  0.81766953  0.90738295     0.16600
F1494       F  0.20157869  0.83694385  0.90503303    -0.22800
H1495       H  0.18442114  0.80387425  0.95335096     0.18400
C1496       C  0.21211840  0.77085551  0.51108292     0.26400
C1497       C  0.19871020  0.75205239  0.53546795    -0.11300
C1498       C  0.17224749  0.73307683  0.53259009    -0.25300
C1499       C  0.15943168  0.73361930  0.50456579     0.37300
C1500       C  0.17476580  0.75340823  0.97952573    -0.26900
F1501       F  0.23732066  0.78919924  0.51550257    -0.19100
H1502       H  0.20922460  0.75233868  0.55667713     0.16600
F1503       F  0.13387861  0.71613567  0.50060982    -0.22800
H1504       H  0.16487876  0.75258037  0.95757660     0.18400
C1505       C  0.21781043  0.77772805  0.80788401    -0.26800
C1506       C  0.19348282  0.77081995  0.79456190     0.06800
C1507       C  0.18012258  0.78347863  0.80396608     0.26400
C1508       C  0.19200439  0.80425079  0.82403908    -0.11300
C1509       C  0.21702993  0.81224837  0.83567335    -0.25300
C1510       C  0.22946268  0.79817695  0.82844043     0.37200
C1511       C  0.18352478  0.75268572  0.76841323     0.06800
F1512       F  0.15658490  0.77729506  0.79162343    -0.19100
H1513       H  0.18233031  0.81514429  0.82901705     0.16600
F1514       F  0.25396155  0.80592566  0.83861861    -0.22800
H1515       H  0.22835217  0.76811717  0.80109680     0.18400
C1516       C  0.19865449  0.75811710  0.74103374     0.26400
C1517       C  0.18879589  0.74200341  0.71556694    -0.11300
C1518       C  0.16368232  0.71996690  0.71678342    -0.25300
C1519       C  0.14863322  0.71438411  0.74445979     0.37300
C1520       C  0.15847117  0.73071388  0.76984328    -0.26900
F1521       F  0.22273350  0.77954426  0.73849126    -0.19100
H1522       H  0.20094665  0.74685725  0.69480797     0.16600
F1523       F  0.12431844  0.69333490  0.74703690    -0.22800
H1524       H  0.14649890  0.72620113  0.79070782     0.18400
C1525       C  0.40542006  0.27227958  0.66103619    -0.26800
C1526       C  0.42723919  0.29041116  0.64307067     0.06800
C1527       C  0.44508602  0.28291019  0.63353564     0.26400
C1528       C  0.43997769  0.25711348  0.63965513    -0.11300
C1529       C  0.41684258  0.23832484  0.65497913    -0.25300
C1530       C  0.40014685  0.24647672  0.66676845     0.37200
C1531       C  0.43046868  0.31658888  0.63354447     0.06800
F1532       F  0.46688916  0.30022511  0.61717730    -0.19100
H1533       H  0.45288692  0.25124015  0.62981553     0.16600
F1534       F  0.37744508  0.22879768  0.68124662    -0.22800
H1535       H  0.39154249  0.27766524  0.66893376     0.18400
C1536       C  0.43147895  0.32486996  0.60161634     0.26400
C1537       C  0.43311501  0.34906344  0.59316566    -0.11300
C1538       C  0.43392017  0.36556820  0.61635472    -0.25300
C1539       C  0.43278936  0.35698853  0.64833123     0.37300
C1540       C  0.43095433  0.33283718  0.65661548    -0.26900
F1541       F  0.43004585  0.30919100  0.57859173    -0.19100
H1542       H  0.43377315  0.35487153  0.56846091     0.16600
F1543       F  0.43303627  0.37168226  0.67191478    -0.22800
H1544       H  0.42989748  0.32675598  0.68129173     0.18400
C1545       C  0.42328005  0.17063843  0.73026507    -0.26800
C1546       C  0.44606535  0.16900916  0.72834019     0.06800
C1547       C  0.46189906  0.18014733  0.70124056     0.26400
C1548       C  0.45440716  0.19153458  0.67623579    -0.11300
C1549       C  0.43087421  0.19187368  0.67745154    -0.25300
C1550       C  0.41570028  0.18179225  0.70522966     0.37200
C1551       C  0.45252825  0.15487164  0.75412811     0.06800
F1552       F  0.48451580  0.17979853  0.69879004    -0.19100
H1553       H  0.46671141  0.19941188  0.65555468     0.16600
F1554       F  0.39250630  0.18099178  0.70731488    -0.22800
H1555       H  0.41060439  0.16210596  0.75067466     0.18400
C1556       C  0.45248538  0.16048859  0.78583416     0.26400
C1557       C  0.45815594  0.14688168  0.80986738    -0.11300
C1558       C  0.46376708  0.12707406  0.80313623    -0.25300
C1559       C  0.46339684  0.12113746  0.77140449     0.45700
C1560       C  0.45796478  0.13498328  0.74728691    -0.26900
F1561       F  0.44762954  0.17966881  0.79359848    -0.19100
H1562       H  0.45831355  0.15205194  0.83392818     0.16600
F1563       F  0.46895493  0.10246903  0.76349393    -0.22800
H1564       H  0.45778424  0.12998162  0.72314280     0.18400
C1565       C  0.45458761  0.15133146  0.00823146    -0.26800
C1566       C  0.44566652  0.13545846  0.53929229     0.06800
C1567       C  0.44426800  0.11094348  0.54098368     0.26400
C1568       C  0.45174675  0.10262593  0.01340300    -0.11300
C1569       C  0.46132891  0.11816729  0.98528218    -0.25300
C1570       C  0.46254517  0.14269597  0.98297264     0.37200
C1571       C  0.43808236  0.14505230  0.56646194     0.06800
F1572       F  0.43659265  0.09561060  0.56799729    -0.19100
H1573       H  0.45056491  0.08370417  0.01605802     0.16600
F1574       F  0.47163982  0.15858477  0.95649435    -0.22800
H1575       H  0.45537214  0.17006965  0.00552574     0.18400
C1576       C  0.45406370  0.17071406  0.57600551     0.26400
C1577       C  0.44501979  0.18102733  0.59815186    -0.11300
C1578       C  0.42018375  0.16579727  0.61172106    -0.25300
C1579       C  0.40485066  0.13964532  0.60365248     0.37300
C1580       C  0.41376056  0.12938143  0.58123705    -0.26900
F1581       F  0.47799542  0.18618551  0.56290001    -0.19100
H1582       H  0.45668960  0.20153338  0.60291455     0.16600
F1583       F  0.38053179  0.12461251  0.61590208    -0.22800
H1584       H  0.40101090  0.10965596  0.57410846     0.18400
loop_ 
_geom_bond_atom_site_label_1 
_geom_bond_atom_site_label_2 
_geom_bond_distance 
_geom_bond_site_symmetry_2 
_ccdc_geom_bond_type 
N1            C5   1.362       .  A
N1            C2   1.365       .  A
N1          C757   1.453       .  S
C2            C3   1.382       .  A
C2          C737   1.483       .  S
C3            C4   1.366       .  A
C3            H6   1.083       .  S
C4            C5   1.379       .  A
C4            H7   1.082       .  S
C5          C786   1.480       .  S
N8           C12   1.360       .  A
N8            C9   1.360       .  A
N8          C697   1.442       .  S
C9           C10   1.382       .  A
C9          C686   1.478       .  S
C10          C11   1.369       .  A
C10          H13   1.083       .  S
C11          C12   1.380       .  A
C11          H14   1.082       .  S
C12         C717   1.481       .  S
N15          C19   1.362       .  A
N15          C16   1.362       .  A
N15         C646   1.443       .  S
C16          C17   1.383       .  A
C16         C617   1.482       .  S
C17          C18   1.367       .  A
C17          H20   1.082       .  S
C18          C19   1.381       .  A
C18          H21   1.082       .  S
C19         C657   1.483       .  S
N22          C26   1.362       .  A
N22          C23   1.360       .  A
N22         C597   1.439       .  S
C23          C24   1.380       .  A
C23         C566   1.478       .  S
C24          C25   1.371       .  A
C24          H27   1.082       .  S
C25          C26   1.383       .  A
C25          H28   1.082       .  S
C26         C577   1.486       .  S
N29          C33   1.360       .  A
N29          C30   1.364       .  A
N29         C517   1.445       .  S
C30          C31   1.384       .  A
C30         C506   1.487       .  S
C31          C32   1.368       .  A
C31          H34   1.083       .  S
C32          C33   1.379       .  A
C32          H35   1.082       .  S
C33         C546   1.481       .  S
N36          C40   1.362       .  A
N36          C37   1.362       .  A
N36         C457   1.451       .  S
C37          C38   1.382       .  A
C37         C446   1.479       .  S
C38          C39   1.367       .  A
C38          H41   1.083       .  S
C39          C40   1.379       .  A
C39          H42   1.082       .  S
C40         C477   1.474       .  S
O43          C59   1.279       .  A
O43         Zn49   2.049       .  S
C44         C666   1.491       .  S
C44          O60   1.279       .  A
C44          O57   1.277   1_655  A
O45          C58   1.271       .  A
O45         Cd52   2.041       .  S
O46          C64   1.278       .  A
O46         Cd55   2.101       .  S
O47          C61   1.280       .  A
O47         Cd51   2.091       .  S
O48          C59   1.280       .  A
O48         Cd51   2.096   1_655  S
Zn49         O60   2.039       .  S
Zn49         O62   2.023       .  S
Zn49         O54   1.949   1_655  S
O50          C61   1.276       .  A
O50         Cd55   2.070       .  S
Cd51         O53   2.097       .  S
Cd51         O54   2.011       .  S
Cd52         O56   2.030   1_655  S
Cd52         O65   2.060   1_655  S
Cd52         O54   1.983   1_655  S
O53          C63   1.277       .  A
O54         Cd55   2.000       .  S
Cd55         O57   2.074       .  S
O56          C63   1.270       .  A
C58         C377   1.473       .  S
C58          O62   1.275       .  A
C59         C637   1.496       .  S
C61         C437   1.485       .  S
C63         C417   1.475       .  S
C64         C397   1.494       .  S
C64          O65   1.272       .  A
O66          C82   1.278       .  A
O66         Zn72   2.027       .  S
C67         C726   1.489       .  S
C67          O83   1.278       .  A
C67          O80   1.275       .  A
O68          C81   1.273       .  A
O68         Cd75   2.063       .  S
O69          C87   1.277       .  A
O69         Cd78   2.075       .  S
O70          C84   1.282       .  A
O70         Cd74   2.111       .  S
O71          C82   1.281       .  A
O71         Cd74   2.101       .  S
Zn72         O83   2.033       .  S
Zn72         O85   2.023       .  S
Zn72         O77   1.946       .  S
O73          C84   1.276       .  A
O73         Cd78   2.076       .  S
Cd74         O76   2.109       .  S
Cd74         O77   2.010       .  S
Cd75         O79   2.055       .  S
Cd75         O88   2.059       .  S
Cd75         O77   1.994       .  S
O76          C86   1.280       .  A
O77         Cd78   1.995       .  S
Cd78         O80   2.072       .  S
O79          C86   1.273       .  A
C81         C357   1.483       .  S
C81          O85   1.273       .  A
C82         C706   1.496       .  S
C84         C497   1.496       .  S
C86         C406   1.487       .  S
C87         C426   1.484       .  S
C87          O88   1.273       .  A
O89         C105   1.278       .  A
O89         Zn95   2.025       .  S
C90         C777   1.489       .  S
C90         O106   1.277       .  A
C90         O103   1.276       .  A
O91         C104   1.273       .  A
O91         Cd98   2.056       .  S
O92         C110   1.275       .  A
O92        Cd101   2.074       .  S
O93         C107   1.281       .  A
O93         Cd97   2.112       .  S
O94         C105   1.283       .  A
O94         Cd97   2.112       .  S
Zn95        O106   2.032       .  S
Zn95        O108   2.042       .  S
Zn95        O100   1.947       .  S
O96         C107   1.276       .  A
O96        Cd101   2.071       .  S
Cd97         O99   2.114       .  S
Cd97        O100   2.012       .  S
Cd98        O102   2.055       .  S
Cd98        O111   2.057       .  S
Cd98        O100   1.989       .  S
O99         C109   1.281       .  A
O100       Cd101   1.994       .  S
Cd101       O103   2.069       .  S
O102        C109   1.273       .  A
C104        C297   1.487       .  S
C104        O108   1.275       .  A
C105        C766   1.497       .  S
C107        C677   1.497   1_545  S
C109        C346   1.495       .  S
C110        C317   1.471       .  S
C110        O111   1.272       .  A
O112        C128   1.279       .  A
O112       Zn118   2.038       .  S
C113        C606   1.493       .  S
C113        O129   1.279       .  A
C113        O126   1.278       .  A
O114        C127   1.273       .  A
O114       Cd121   2.064       .  S
O115        C133   1.277       .  A
O115       Cd124   2.094       .  S
O116        C130   1.281       .  A
O116       Cd120   2.107   1_545  S
O117        C128   1.280       .  A
O117       Cd120   2.105       .  S
Zn118       O129   2.043       .  S
Zn118       O131   2.028       .  S
Zn118       O123   1.949       .  S
O119        C130   1.277       .  A
O119       Cd124   2.078   1_545  S
Cd120       O122   2.103   1_565  S
Cd120       O123   2.020       .  S
Cd121       O125   2.039       .  S
Cd121       O134   2.071       .  S
Cd121       O123   1.995       .  S
O122        C132   1.280   1_545  A
O123       Cd124   1.997       .  S
Cd124       O126   2.081       .  S
O125        C132   1.272       .  A
C127        C277   1.488       .  S
C127        O131   1.274       .  A
C128        C586   1.499       .  S
C130        C626   1.497       .  S
C132        C326   1.488   1_565  S
C133        C337   1.485       .  S
C133        O134   1.274       .  A
C135        N136   1.358       .  A
C135        N140   1.358       .  A
C135        C306   1.484       .  S
N136        C137   1.358       .  A
C137        N138   1.358       .  A
C137        C266   1.478       .  S
N138        C139   1.358       .  A
C139        N140   1.358       .  A
C139        C386   1.480       .  S
C141        N142   1.358       .  A
C141        N146   1.361       .  A
C141        C286   1.482       .  S
N142        C143   1.356       .  A
C143        N144   1.359       .  A
C143        C366   1.482       .  S
N144        C145   1.360       .  A
C145        N146   1.362       .  A
C145        C237   1.491       .  S
O147        C163   1.278       .  A
O147       Zn153   2.033       .  S
C148        C486   1.490       .  S
C148        O164   1.277       .  A
C148        O161   1.275       .  A
O149        C162   1.274       .  A
O149       Cd156   2.070       .  S
O150        C168   1.276       .  A
O150       Cd159   2.083       .  S
O151        C165   1.284       .  A
O151       Cd155   2.128       .  S
O152        C163   1.282       .  A
O152       Cd155   2.111       .  S
Zn153       O164   2.033       .  S
Zn153       O166   2.038       .  S
Zn153       O158   1.946       .  S
O154        C165   1.275       .  A
O154       Cd159   2.063       .  S
Cd155       O157   2.123       .  S
Cd155       O158   2.021       .  S
Cd156       O160   2.045       .  S
Cd156       O169   2.060       .  S
Cd156       O158   1.994       .  S
O157        C167   1.282       .  A
O158       Cd159   1.996       .  S
Cd159       O161   2.070       .  S
O160        C167   1.272       .  A
C162        C246   1.486       .  S
C162        O166   1.276       .  A
C163        C466   1.498       .  S
C165        C746   1.500       .  S
C167        C217   1.480       .  S
C168        C197   1.484       .  S
C168        O169   1.272       .  A
O170        C186   1.277       .  A
O170       Zn176   2.032       .  S
C171        C537   1.493       .  S
C171        O187   1.278       .  A
C171        O184   1.276       .  A
O172        C185   1.272       .  A
O172       Cd179   2.058       .  S
O173        C191   1.276       .  A
O173       Cd182   2.088       .  S
O174        C188   1.281       .  A
O174       Cd178   2.111       .  S
O175        C186   1.282       .  A
O175       Cd178   2.116       .  S
Zn176       O187   2.044       .  S
Zn176       O189   2.022       .  S
Zn176       O181   1.951       .  S
O177        C188   1.276       .  A
O177       Cd182   2.064       .  S
Cd178       O180   2.105       .  S
Cd178       O181   2.025       .  S
Cd179       O183   2.045       .  S
Cd179       O192   2.064       .  S
Cd179       O181   1.995       .  S
O180        C190   1.280       .  A
O181       Cd182   2.000       .  S
Cd182       O184   2.074       .  S
O183        C190   1.273       .  A
C185        C257   1.479       .  S
C185        O189   1.274       .  A
C186        C526   1.502       .  S
C188        C557   1.495       .  S
C190        C206   1.486       .  S
C191        C226   1.491       .  S
C191        O192   1.272       .  A
C193        C194   1.407       .  A
C193        C198   1.398       .  A
C193        H203   1.083       .  S
C194        C195   1.406       .  A
C194        C199   1.487       .  S
C195        C196   1.401       .  A
C195        F200   1.357       .  S
C196        C197   1.409       .  A
C196        H201   1.083       .  S
C197        C198   1.406       .  A
C198        F202   1.357       .  S
C199        C204   1.410       .  A
C199        C208   1.402       .  A
C204        C205   1.404       .  A
C204        F209   1.357       .  S
C205        C206   1.407       .  A
C205        H210   1.083       .  S
C206        C207   1.411       .  A
C207        C208   1.394       .  A
C207        F211   1.358       .  S
C208        H212   1.084       .  S
C213        C218   1.397       .  A
C213       C1006   1.404   1_554  A
C213        H223   1.083       .  S
C214        C215   1.412       .  A
C214       C1005   1.402       .  A
C214        C219   1.487       .  S
C215       C1008   1.405       .  A
C215        F220   1.357       .  S
C216        C217   1.403   1_556  A
C216       C1007   1.407       .  A
C216        H221   1.083       .  S
C217        C218   1.408       .  A
C218        F222   1.358       .  S
C219        C224   1.409       .  A
C219        C228   1.402       .  A
C224        C225   1.401       .  A
C224        F229   1.358       .  S
C225        C226   1.407       .  A
C225        H230   1.083       .  S
C226        C227   1.413       .  A
C227        C228   1.399       .  A
C227        F231   1.357       .  S
C228        H232   1.083       .  S
C233        C234   1.404       .  A
C233        C238   1.400       .  A
C233        H243   1.083       .  S
C234        C235   1.407       .  A
C234        C239   1.489       .  S
C235        C236   1.400       .  A
C235        F240   1.357       .  S
C236        C237   1.408       .  A
C236        H241   1.083       .  S
C237        C238   1.412       .  A
C238        F242   1.357       .  S
C239        C244   1.409       .  A
C239        C248   1.405       .  A
C244        C245   1.401       .  A
C244        F249   1.358       .  S
C245        C246   1.406       .  A
C245        H250   1.083       .  S
C246        C247   1.409       .  A
C247        C248   1.400       .  A
C247        F251   1.357       .  S
C248        H252   1.083       .  S
C253        C254   1.404       .  A
C253        C258   1.396       .  A
C253        H263   1.083       .  S
C254        C255   1.406       .  A
C254        C259   1.482       .  S
C255        C256   1.398       .  A
C255        F260   1.357       .  S
C256        C257   1.405       .  A
C256        H261   1.083       .  S
C257        C258   1.408       .  A
C258        F262   1.358       .  S
C259        C264   1.407       .  A
C259        C268   1.404       .  A
C264        C265   1.397       .  A
C264        F269   1.357       .  S
C265        C266   1.405       .  A
C265        H270   1.083       .  S
C266        C267   1.407       .  A
C267        C268   1.397       .  A
C267        F271   1.358       .  S
C268        H272   1.083       .  S
C273        C274   1.405       .  A
C273        C278   1.399       .  A
C273        H283   1.083       .  S
C274        C275   1.408       .  A
C274        C279   1.488       .  S
C275        C276   1.399       .  A
C275        F280   1.358       .  S
C276        C277   1.407       .  A
C276        H281   1.083       .  S
C277        C278   1.410       .  A
C278        F282   1.357       .  S
C279        C284   1.409       .  A
C279        C288   1.404       .  A
C284        C285   1.400       .  A
C284        F289   1.357       .  S
C285        C286   1.405       .  A
C285        H290   1.083       .  S
C286        C287   1.409       .  A
C287        C288   1.397       .  A
C287        F291   1.358       .  S
C288        H292   1.083       .  S
C293        C294   1.405       .  A
C293        C298   1.402       .  A
C293        H303   1.083       .  S
C294        C295   1.405       .  A
C294        C299   1.484       .  S
C295        C296   1.395       .  A
C295        F300   1.358       .  S
C296        C297   1.407       .  A
C296        H301   1.083       .  S
C297        C298   1.411       .  A
C298        F302   1.357       .  S
C299        C304   1.406       .  A
C299        C308   1.404       .  A
C304        C305   1.399       .  A
C304        F309   1.357       .  S
C305        C306   1.407       .  A
C305        H310   1.083       .  S
C306        C307   1.410       .  A
C307        C308   1.397       .  A
C307        F311   1.358       .  S
C308        H312   1.083       .  S
C313        C318   1.400       .  A
C313       C1106   1.406       .  A
C313        H323   1.083       .  S
C314        C315   1.410       .  A
C314       C1105   1.406       .  A
C314        C319   1.488       .  S
C315       C1108   1.396   1_554  A
C315        F320   1.358   1_545  S
C316        C317   1.400       .  A
C316       C1107   1.394       .  A
C316       H1113   1.084       .  S
C317        C318   1.406       .  A
C318        F322   1.358       .  S
C319        C324   1.410       .  A
C319        C328   1.401       .  A
H321       C1108   1.084       .  S
C324        C325   1.404       .  A
C324       F1121   1.357       .  S
C325        C326   1.407       .  A
C325        H330   1.083       .  S
C326        C327   1.413   1_545  A
C327        C328   1.391   1_565  A
C327        F331   1.358       .  S
C328        H332   1.083       .  S
F329       C1116   1.357       .  S
C333        C334   1.407   1_565  A
C333        C338   1.403       .  A
C333        H343   1.083       .  S
C334        C335   1.411       .  A
C334        C339   1.495       .  S
C335        C336   1.400       .  A
C335        F340   1.357       .  S
C336        C337   1.404   1_545  A
C336        H341   1.083       .  S
C337        C338   1.408       .  A
C338        F342   1.357       .  S
C339        C344   1.411       .  A
C339        C348   1.403       .  A
C344        C345   1.405       .  A
C344        F349   1.357       .  S
C345        C346   1.407       .  A
C345        H350   1.083       .  S
C346        C347   1.414       .  A
C347        C348   1.398       .  A
C347        F351   1.358       .  S
C348        H352   1.083       .  S
C353        C354   1.406       .  A
C353        C358   1.400       .  A
C353        H363   1.083       .  S
C354        C355   1.408       .  A
C354        C359   1.487       .  S
C355        C356   1.396       .  A
C355        F360   1.357       .  S
C356        C357   1.404       .  A
C356        H361   1.083       .  S
C357        C358   1.410       .  A
C358        F362   1.358       .  S
C359        C364   1.408       .  A
C359        C368   1.405       .  A
C364        C365   1.399       .  A
C364        F369   1.358       .  S
C365        C366   1.406       .  A
C365        H370   1.083       .  S
C366        C367   1.407       .  A
C367        C368   1.397       .  A
C367        F371   1.357       .  S
C368        H372   1.083       .  S
C373        C374   1.402       .  A
C373        C378   1.394       .  A
C373        H383   1.083       .  S
C374        C375   1.406       .  A
C374        C379   1.476       .  S
C375        C376   1.397       .  A
C375        F380   1.357       .  S
C376        C377   1.404       .  A
C376        H381   1.083       .  S
C377        C378   1.408       .  A
C378        F382   1.358       .  S
C379        C384   1.405       .  A
C379        C388   1.401       .  A
C384        C385   1.397       .  A
C384        F389   1.358       .  S
C385        C386   1.406       .  A
C385        H390   1.083       .  S
C386        C387   1.409       .  A
C387        C388   1.395       .  A
C387        F391   1.357       .  S
C388        H392   1.083       .  S
C393       C1186   1.408       .  A
C393       C1190   1.402       .  A
C393        H403   1.083   1_556  S
C394        C395   1.407       .  A
C394       C1185   1.408       .  A
C394       C1191   1.496       .  S
C395        C396   1.402       .  A
C395        F400   1.357       .  S
C396        C397   1.411       .  A
C396        H401   1.083       .  S
C397        C398   1.408       .  A
C398       C1185   1.402       .  A
C398       F1194   1.357       .  S
C399        C404   1.411   1_556  A
C399        C408   1.403   1_556  A
C399       C1186   1.491       .  S
F402       C1190   1.357       .  S
C404        C405   1.405       .  A
C404        F409   1.357   1_554  S
C405        C406   1.406       .  A
C405        H410   1.083       .  S
C406        C407   1.410       .  A
C407        C408   1.397       .  A
C407        F411   1.358       .  S
C408       H1204   1.083       .  S
H412       C1200   1.083       .  S
C413        C414   1.401       .  A
C413        C418   1.391       .  A
C413        H423   1.083       .  S
C414        C415   1.411       .  A
C414        C419   1.484       .  S
C415        C416   1.403       .  A
C415        F420   1.357       .  S
C416        C417   1.403       .  A
C416        H421   1.083       .  S
C417        C418   1.408       .  A
C418        F422   1.358       .  S
C419        C424   1.408       .  A
C419        C428   1.403       .  A
C424        C425   1.395       .  A
C424        F429   1.358       .  S
C425        C426   1.404       .  A
C425        H430   1.083       .  S
C426        C427   1.412       .  A
C427        C428   1.399       .  A
C427        F431   1.357       .  S
C428        H432   1.083       .  S
C433        C434   1.402       .  A
C433        C438   1.400       .  A
C433        H443   1.083       .  S
C434        C435   1.407       .  A
C434        C439   1.483       .  S
C435        C436   1.401       .  A
C435        F440   1.358       .  S
C436        C437   1.406       .  A
C436        H441   1.083       .  S
C437        C438   1.411       .  A
C438        F442   1.357       .  S
C439        C444   1.408       .  A
C439        C448   1.402       .  A
C444        C445   1.404       .  A
C444        F449   1.357       .  S
C445        C446   1.404       .  A
C445        H450   1.083       .  S
C446        C447   1.406       .  A
C447        C448   1.397       .  A
C447        F451   1.357       .  S
C448        H452   1.083       .  S
C453        C454   1.406       .  A
C453        C458   1.402       .  A
C453        H463   1.083       .  S
C454        C455   1.409       .  A
C454        C459   1.497       .  S
C455        C456   1.403       .  A
C455        F460   1.357       .  S
C456        C457   1.406       .  A
C456        H461   1.079       .  S
C457        C458   1.411       .  A
C458        F462   1.356       .  S
C459        C468   1.408       .  A
C459       C1256   1.408       .  A
C464        C465   1.402   1_556  A
C464       C1251   1.404       .  A
C464       F1261   1.357   1_556  S
C465        C466   1.410       .  A
C465        H470   1.083       .  S
C466        C467   1.412   1_554  A
C467       C1260   1.405       .  A
C467        F471   1.357       .  S
C468       C1259   1.404       .  A
C468        H472   1.083       .  S
F469       C1256   1.357       .  S
C473        C474   1.407       .  A
C473        C478   1.401       .  A
C473        H483   1.083       .  S
C474        C475   1.408       .  A
C474        C479   1.487       .  S
C475        C476   1.396       .  A
C475        F480   1.357       .  S
C476        C477   1.402       .  A
C476        H481   1.084       .  S
C477        C478   1.404       .  A
C478        F482   1.357       .  S
C479        C484   1.405       .  A
C479        C488   1.405       .  A
C484        C485   1.401       .  A
C484        F489   1.357       .  S
C485        C486   1.410       .  A
C485        H490   1.083       .  S
C486        C487   1.410       .  A
C487        C488   1.398       .  A
C487        F491   1.357       .  S
C488        H492   1.083       .  S
C493        C494   1.403   1_455  A
C493        C498   1.404       .  A
C493        H503   1.083       .  S
C494        C495   1.408   1_655  A
C494        C499   1.492       .  S
C495        C496   1.404       .  A
C495        F500   1.357   1_455  S
C496        C497   1.407       .  A
C496        H501   1.083       .  S
C497        C498   1.414       .  A
C498        F502   1.358       .  S
C499        C504   1.408       .  A
C499        C508   1.404       .  A
C504        C505   1.406       .  A
C504        F509   1.357       .  S
C505        C506   1.406       .  A
C505        H510   1.083       .  S
C506        C507   1.409       .  A
C507        C508   1.402       .  A
C507        F511   1.358       .  S
C508        H512   1.083   1_655  S
C513        C514   1.410       .  A
C513        C518   1.408       .  A
C513        H523   1.083       .  S
C514        C515   1.407       .  A
C514        C519   1.496       .  S
C515        C516   1.402       .  A
C515        F520   1.357       .  S
C516        C517   1.406       .  A
C516        H521   1.083       .  S
C517        C518   1.404       .  A
C518        F522   1.356       .  S
C519        C524   1.410       .  A
C519        C528   1.403       .  A
C524        C525   1.407       .  A
C524        F529   1.357       .  S
C525        C526   1.409       .  A
C525        H530   1.083       .  S
C526        C527   1.415       .  A
C527        C528   1.404       .  A
C527        F531   1.357       .  S
C528        H532   1.083       .  S
C533        C534   1.406       .  A
C533        C538   1.401       .  A
C533        H543   1.083       .  S
C534        C535   1.406       .  A
C534       C1331   1.492       .  S
C535        C536   1.401       .  A
C535       F1332   1.357       .  S
C536        C537   1.409       .  A
C536        H541   1.083       .  S
C537        C538   1.411       .  A
C538        F542   1.357       .  S
C539        C544   1.410       .  A
C539        C548   1.407       .  A
C539       C1326   1.492   1_554  S
F540       C1327   1.357   1_554  S
C544        C545   1.401       .  A
C544        F549   1.357       .  S
C545        C546   1.403       .  A
C545        H550   1.083       .  S
C546        C547   1.405       .  A
C547        C548   1.401       .  A
C547        F551   1.357       .  S
C548        H552   1.083       .  S
C553        C554   1.406       .  A
C553        C558   1.407       .  A
C553        H563   1.083       .  S
C554        C555   1.406       .  A
C554        C559   1.490       .  S
C555        C556   1.396       .  A
C555        F560   1.358       .  S
C556        C557   1.409       .  A
C556        H561   1.083       .  S
C557        C558   1.412       .  A
C558        F562   1.357       .  S
C559        C564   1.407       .  A
C559        C568   1.406       .  A
C564        C565   1.403       .  A
C564        F569   1.357       .  S
C565        C566   1.404       .  A
C565        H570   1.083       .  S
C566        C567   1.404       .  A
C567        C568   1.401       .  A
C567        F571   1.357       .  S
C568        H572   1.083       .  S
C573        C574   1.405       .  A
C573        C578   1.405       .  A
C573        H583   1.083       .  S
C574        C575   1.403       .  A
C574       C1371   1.484       .  S
C575        C576   1.398       .  A
C575       F1372   1.357       .  S
C576        C577   1.406       .  A
C576        H581   1.083       .  S
C577        C578   1.408       .  A
C578        F582   1.356       .  S
C579        C584   1.408       .  A
C579        C588   1.403       .  A
C579       C1366   1.494   1_554  S
F580       C1367   1.357       .  S
C584        C585   1.408       .  A
C584       F1381   1.357   1_554  S
C585        C586   1.411       .  A
C585        H590   1.083       .  S
C586        C587   1.413       .  A
C587        C588   1.400       .  A
C587        F591   1.357       .  S
C588        H592   1.083       .  S
F589       C1376   1.357       .  S
C593        C594   1.407       .  A
C593        C598   1.404       .  A
C593        H603   1.083       .  S
C594        C595   1.407       .  A
C594        C599   1.488       .  S
C595        C596   1.399       .  A
C595        F600   1.358       .  S
C596        C597   1.402       .  A
C596        H601   1.083       .  S
C597        C598   1.404       .  A
C598        F602   1.355       .  S
C599        C604   1.406       .  A
C599        C608   1.404       .  A
C604        C605   1.403       .  A
C604        F609   1.357       .  S
C605        C606   1.409       .  A
C605        H610   1.083       .  S
C606        C607   1.411       .  A
C607        C608   1.400       .  A
C607        F611   1.357       .  S
C608        H612   1.083       .  S
C613        C614   1.405       .  A
C613        C618   1.400       .  A
C613        H623   1.083       .  S
C614        C615   1.410       .  A
C614        C619   1.493       .  S
C615        C616   1.405       .  A
C615        F620   1.357       .  S
C616        C617   1.405       .  A
C616        H621   1.083       .  S
C617        C618   1.407       .  A
C618        F622   1.358       .  S
C619        C624   1.409       .  A
C619        C628   1.404       .  A
C624        C625   1.404       .  A
C624        F629   1.357       .  S
C625        C626   1.408       .  A
C625        H630   1.083       .  S
C626        C627   1.414       .  A
C627        C628   1.403       .  A
C627        F631   1.357       .  S
C628        H632   1.083       .  S
C633        C634   1.406       .  A
C633        C638   1.401       .  A
C633        H643   1.083       .  S
C634        C635   1.408       .  A
C634        C639   1.495       .  S
C635        C636   1.408       .  A
C635        F640   1.357       .  S
C636        C637   1.411       .  A
C636        H641   1.083       .  S
C637        C638   1.409       .  A
C638        F642   1.357   1_655  S
C639        C644   1.414       .  A
C639        C648   1.404       .  A
C644        C645   1.410       .  A
C644        F649   1.357       .  S
C645        C646   1.404       .  A
C645        H650   1.084       .  S
C646        C647   1.405       .  A
C647        C648   1.396       .  A
C647        F651   1.357       .  S
C648        H652   1.084       .  S
C653        C654   1.403       .  A
C653        C658   1.400       .  A
C653        H663   1.084       .  S
C654        C655   1.407       .  A
C654        C659   1.483       .  S
C655        C656   1.400       .  A
C655        F660   1.357       .  S
C656        C657   1.403       .  A
C656        H661   1.083       .  S
C657        C658   1.409       .  A
C658        F662   1.358       .  S
C659        C664   1.404       .  A
C659       C1460   1.403       .  A
C664       C1457   1.402       .  A
C664        F669   1.357   1_655  S
C665        C666   1.411       .  A
C665       C1456   1.402       .  A
C665        H670   1.083   1_655  S
C666        C667   1.410       .  A
C667        C668   1.398       .  A
C667        F671   1.357       .  S
C668       C1451   1.404       .  A
C668        H672   1.084       .  S
C673        C674   1.406       .  A
C673        C678   1.404       .  A
C673        H683   1.083       .  S
C674        C675   1.404       .  A
C674        C679   1.490       .  S
C675        C676   1.403       .  A
C675        F680   1.357       .  S
C676        C677   1.412       .  A
C676        H681   1.083       .  S
C677        C678   1.411       .  A
C678        F682   1.357       .  S
C679        C684   1.408       .  A
C679        C688   1.405       .  A
C684        C685   1.402       .  A
C684        F689   1.357       .  S
C685        C686   1.404       .  A
C685        H690   1.083       .  S
C686        C687   1.406       .  A
C687        C688   1.403       .  A
C687        F691   1.358       .  S
C688        H692   1.083       .  S
C693        C694   1.405       .  A
C693        C698   1.397       .  A
C693        H703   1.083       .  S
C694        C695   1.414       .  A
C694        C699   1.496       .  S
C695        C696   1.408       .  A
C695        F700   1.357       .  S
C696        C697   1.402       .  A
C696        H701   1.083       .  S
C697        C698   1.405       .  A
C698        F702   1.357       .  S
C699        C708   1.408       .  A
C699       C1496   1.407       .  A
C704        C705   1.403       .  A
C704       C1491   1.405   1_554  A
C704        F709   1.357       .  S
C705        C706   1.411       .  A
C705        H710   1.083       .  S
C706        C707   1.410       .  A
C707       C1500   1.401   1_554  A
C707        F711   1.357   1_554  S
C708       C1499   1.402       .  A
C708        H712   1.083       .  S
C713        C714   1.405       .  A
C713        C718   1.402       .  A
C713        H723   1.083       .  S
C714        C715   1.404       .  A
C714        C719   1.481       .  S
C715        C716   1.399       .  A
C715        F720   1.357       .  S
C716        C717   1.405       .  A
C716        H721   1.083       .  S
C717        C718   1.406       .  A
C718        F722   1.357       .  S
C719        C724   1.405       .  A
C719        C728   1.402       .  A
C724        C725   1.398       .  A
C724        F729   1.358       .  S
C725        C726   1.406       .  A
C725        H730   1.083       .  S
C726        C727   1.413       .  A
C727        C728   1.402       .  A
C727        F731   1.357       .  S
C728        H732   1.083       .  S
C733        C734   1.406       .  A
C733        C738   1.402       .  A
C733        H743   1.083       .  S
C734        C735   1.409       .  A
C734        C739   1.493       .  S
C735        C736   1.405       .  A
C735        F740   1.357       .  S
C736        C737   1.406       .  A
C736        H741   1.083       .  S
C737        C738   1.406       .  A
C738        F742   1.357       .  S
C739        C744   1.410       .  A
C739        C748   1.401       .  A
C744        C745   1.407       .  A
C744        F749   1.357       .  S
C745        C746   1.408       .  A
C745        H750   1.083       .  S
C746        C747   1.416       .  A
C747        C748   1.400       .  A
C747        F751   1.357       .  S
C748        H752   1.083       .  S
C753        C754   1.405       .  A
C753        C758   1.402       .  A
C753        H763   1.083       .  S
C754        C755   1.410       .  A
C754        C759   1.498       .  S
C755        C756   1.406       .  A
C755        F760   1.357       .  S
C756        C757   1.407       .  A
C756        H761   1.079       .  S
C757        C758   1.413       .  A
C758        F762   1.357       .  S
C759        C764   1.408       .  A
C759        C768   1.408       .  A
C764        C765   1.402       .  A
C764        F769   1.357       .  S
C765        C766   1.410       .  A
C765        H770   1.083       .  S
C766        C767   1.410       .  A
C767        C768   1.405       .  A
C767        F771   1.357       .  S
C768        H772   1.083       .  S
C773        C778   1.398       .  A
C773       C1566   1.405       .  A
C773        H783   1.083       .  S
C774        C775   1.407       .  A
C774       C1565   1.406       .  A
C774        C779   1.491       .  S
C775       C1568   1.400       .  A
C775        F780   1.357       .  S
C776        C777   1.409       .  A
C776       C1567   1.400       .  A
C776        H781   1.083       .  S
C777        C778   1.410       .  A
C778        F782   1.357       .  S
C779        C784   1.410       .  A
C779        C788   1.407       .  A
C784        C785   1.399       .  A
C784        F789   1.357       .  S
C785        C786   1.403       .  A
C785        H790   1.083       .  S
C786        C787   1.405       .  A
C787        C788   1.400       .  A
C787        F791   1.357       .  S
C788        H792   1.083       .  S
N793        C797   1.362       .  A
N793        C794   1.366       .  A
N793       C1549   1.453       .  S
C794        C795   1.384       .  A
C794       C1529   1.485       .  S
C795        C796   1.364       .  A
C795        H798   1.083       .  S
C796        C797   1.378       .  A
C796        H799   1.082       .  S
C797       C1578   1.478       .  S
N800        C804   1.359       .  A
N800        C801   1.359       .  A
N800       C1489   1.441       .  S
C801        C802   1.383       .  A
C801       C1478   1.480       .  S
C802        C803   1.371       .  A
C802        H805   1.082       .  S
C803        C804   1.379       .  A
C803        H806   1.082       .  S
C804       C1509   1.478       .  S
N807        C811   1.361       .  A
N807        C808   1.363       .  A
N807       C1438   1.445       .  S
C808        C809   1.383       .  A
C808       C1409   1.482       .  S
C809        C810   1.367       .  A
C809        H812   1.083       .  S
C810        C811   1.380       .  A
C810        H813   1.083       .  S
C811       C1449   1.479       .  S
N814        C818   1.362       .  A
N814        C815   1.362       .  A
N814       C1389   1.439       .  S
C815        C816   1.381       .  A
C815       C1358   1.483       .  S
C816        C817   1.372       .  A
C816        H819   1.082       .  S
C817        C818   1.382       .  A
C817        H820   1.082       .  S
C818       C1369   1.488       .  S
N821        C825   1.359       .  A
N821        C822   1.361       .  A
N821       C1309   1.443       .  S
C822        C823   1.384       .  A
C822       C1298   1.482       .  S
C823        C824   1.369       .  A
C823        H826   1.083       .  S
C824        C825   1.379       .  A
C824        H827   1.082       .  S
C825       C1338   1.478       .  S
N828        C832   1.362       .  A
N828        C829   1.365       .  A
N828       C1249   1.451       .  S
C829        C830   1.384       .  A
C829       C1238   1.484       .  S
C830        C831   1.367       .  A
C830        H833   1.083       .  S
C831        C832   1.378       .  A
C831        H834   1.082       .  S
C832       C1269   1.474       .  S
O835        C851   1.278       .  A
O835       Zn841   2.050       .  S
C836       C1458   1.491       .  S
C836        O852   1.279       .  A
C836        O849   1.278   1_655  A
O837        C850   1.271       .  A
O837       Cd844   2.044       .  S
O838        C856   1.279       .  A
O838       Cd847   2.105       .  S
O839        C853   1.281       .  A
O839       Cd843   2.097       .  S
O840        C851   1.280       .  A
O840       Cd843   2.103   1_655  S
Zn841       O852   2.036       .  S
Zn841       O854   2.033       .  S
Zn841       O846   1.950   1_655  S
O842        C853   1.277       .  A
O842       Cd847   2.078       .  S
Cd843       O845   2.097       .  S
Cd843       O846   2.011       .  S
Cd844       O848   2.028   1_655  S
Cd844       O857   2.051   1_655  S
Cd844       O846   1.983   1_655  S
O845        C855   1.277       .  A
O846       Cd847   2.007       .  S
Cd847       O849   2.078       .  S
O848        C855   1.269       .  A
C850       C1169   1.479       .  S
C850        O854   1.276       .  A
C851       C1429   1.499       .  S
C853       C1229   1.495       .  S
C855       C1209   1.469       .  S
C856       C1189   1.490       .  S
C856        O857   1.271       .  A
O858        C874   1.277       .  A
O858       Zn864   2.022       .  S
C859       C1518   1.491       .  S
C859        O875   1.278       .  A
C859        O872   1.275       .  A
O860        C873   1.273       .  A
O860       Cd867   2.064       .  S
O861        C879   1.276       .  A
O861       Cd870   2.072       .  S
O862        C876   1.281       .  A
O862       Cd866   2.102       .  S
O863        C874   1.282       .  A
O863       Cd866   2.105       .  S
Zn864       O875   2.035       .  S
Zn864       O877   2.023       .  S
Zn864       O869   1.944       .  S
O865        C876   1.276       .  A
O865       Cd870   2.075       .  S
Cd866       O868   2.115       .  S
Cd866       O869   2.008       .  S
Cd867       O871   2.059       .  S
Cd867       O880   2.052       .  S
Cd867       O869   1.993       .  S
O868        C878   1.280       .  A
O869       Cd870   1.997       .  S
Cd870       O872   2.075       .  S
O871        C878   1.274       .  A
C873       C1149   1.482       .  S
C873        O877   1.273       .  A
C874       C1498   1.495       .  S
C876       C1289   1.492       .  S
C878       C1198   1.488       .  S
C879       C1218   1.482       .  S
C879        O880   1.272       .  A
O881        C897   1.277       .  A
O881       Zn887   2.028       .  S
C882       C1569   1.490       .  S
C882        O898   1.277       .  A
C882        O895   1.277       .  A
O883        C896   1.272       .  A
O883       Cd890   2.053       .  S
O884        C902   1.277       .  A
O884       Cd893   2.087       .  S
O885        C899   1.281       .  A
O885       Cd889   2.106       .  S
O886        C897   1.282       .  A
O886       Cd889   2.116       .  S
Zn887       O898   2.027       .  S
Zn887       O900   2.039       .  S
Zn887       O892   1.947       .  S
O888        C899   1.277       .  A
O888       Cd893   2.079       .  S
Cd889       O891   2.107       .  S
Cd889       O892   2.013       .  S
Cd890       O894   2.047       .  S
Cd890       O903   2.058       .  S
Cd890       O892   1.989       .  S
O891        C901   1.280       .  A
O892       Cd893   2.002       .  S
Cd893       O895   2.079       .  S
O894        C901   1.272       .  A
C896       C1089   1.485       .  S
C896        O900   1.275       .  A
C897       C1558   1.498       .  S
C899       C1469   1.497   1_545  S
C901       C1138   1.491       .  S
C902       C1109   1.475       .  S
C902        O903   1.272       .  A
O904        C920   1.278       .  A
O904       Zn910   2.027       .  S
C905       C1398   1.489       .  S
C905        O921   1.278       .  A
C905        O918   1.277       .  A
O906        C919   1.273       .  A
O906       Cd913   2.058       .  S
O907        C925   1.277       .  A
O907       Cd916   2.086       .  S
O908        C922   1.281       .  A
O908       Cd912   2.106   1_545  S
O909        C920   1.279       .  A
O909       Cd912   2.094       .  S
Zn910       O921   2.038       .  S
Zn910       O923   2.034       .  S
Zn910       O915   1.947       .  S
O911        C922   1.276       .  A
O911       Cd916   2.073   1_545  S
Cd912       O914   2.098       .  S
Cd912       O915   2.013       .  S
Cd913       O917   2.040       .  S
Cd913       O926   2.065       .  S
Cd913       O915   1.989       .  S
O914        C924   1.279       .  A
O915       Cd916   1.990       .  S
Cd916       O918   2.072       .  S
O917        C924   1.271       .  A
C919       C1069   1.486       .  S
C919        O923   1.275       .  A
C920       C1378   1.487       .  S
C922       C1418   1.496       .  S
C924       C1118   1.486   1_565  S
C925       C1129   1.480       .  S
C925        O926   1.273       .  A
C927        N928   1.359       .  A
C927        N932   1.358       .  A
C927       C1098   1.486       .  S
N928        C929   1.358       .  A
C929        N930   1.359       .  A
C929       C1058   1.479       .  S
N930        C931   1.359       .  A
C931        N932   1.358       .  A
C931       C1178   1.483       .  S
C933        N934   1.359       .  A
C933        N938   1.358       .  A
C933       C1078   1.480       .  S
N934        C935   1.359       .  A
C935        N936   1.359       .  A
C935       C1158   1.482       .  S
N936        C937   1.359       .  A
C937        N938   1.359       .  A
C937       C1029   1.488       .  S
O939        C955   1.277       .  A
O939       Zn945   2.026       .  S
C940       C1278   1.489       .  S
C940        O956   1.276       .  A
C940        O953   1.276       .  A
O941        C954   1.274       .  A
O941       Cd948   2.069       .  S
O942        C960   1.277       .  A
O942       Cd951   2.084       .  S
O943        C957   1.284       .  A
O943       Cd947   2.131       .  S
O944        C955   1.282       .  A
O944       Cd947   2.112       .  S
Zn945       O956   2.024       .  S
Zn945       O958   2.026       .  S
Zn945       O950   1.939       .  S
O946        C957   1.274       .  A
O946       Cd951   2.058       .  S
Cd947       O949   2.111       .  S
Cd947       O950   2.017       .  S
Cd948       O952   2.040       .  S
Cd948       O961   2.064       .  S
Cd948       O950   1.994       .  S
O949        C959   1.280       .  A
O950       Cd951   1.992       .  S
Cd951       O953   2.074       .  S
O952        C959   1.272       .  A
C954       C1038   1.482       .  S
C954        O958   1.275       .  A
C955       C1258   1.494       .  S
C957       C1538   1.499       .  S
C959       C1009   1.472       .  S
C960        C989   1.487       .  S
C960        O961   1.273       .  A
O962        C978   1.276       .  A
O962       Zn968   2.031       .  S
C963       C1329   1.493       .  S
C963        O979   1.278       .  A
C963        O976   1.277       .  A
O964        C977   1.273       .  A
O964       Cd971   2.064       .  S
O965        C983   1.278       .  A
O965       Cd974   2.101       .  S
O966        C980   1.281       .  A
O966       Cd970   2.114       .  S
O967        C978   1.281       .  A
O967       Cd970   2.110       .  S
Zn968       O979   2.042       .  S
Zn968       O981   2.019       .  S
Zn968       O973   1.955       .  S
O969        C980   1.277       .  A
O969       Cd974   2.069       .  S
Cd970       O972   2.111       .  S
Cd970       O973   2.027       .  S
Cd971       O975   2.052       .  S
Cd971       O984   2.073       .  S
Cd971       O973   1.998       .  S
O972        C982   1.280       .  A
O973       Cd974   2.003       .  S
Cd974       O976   2.079       .  S
O975        C982   1.274       .  A
C977       C1049   1.480       .  S
C977        O981   1.274       .  A
C978       C1318   1.499       .  S
C980       C1349   1.497       .  S
C982        C998   1.488       .  S
C983       C1018   1.496       .  S
C983        O984   1.274       .  A
C985        C986   1.406       .  A
C985        C990   1.398       .  A
C985        H995   1.083       .  S
C986        C987   1.406       .  A
C986        C991   1.488       .  S
C987        C988   1.402       .  A
C987        F992   1.357       .  S
C988        C989   1.410       .  A
C988        H993   1.083       .  S
C989        C990   1.407       .  A
C990        F994   1.357       .  S
C991        C996   1.410       .  A
C991       C1000   1.402       .  A
C996        C997   1.406       .  A
C996       F1001   1.357       .  S
C997        C998   1.407       .  A
C997       H1002   1.083       .  S
C998        C999   1.411       .  A
C999       C1000   1.395       .  A
C999       F1003   1.358       .  S
C1000      H1004   1.084       .  S
C1005      C1010   1.395       .  A
C1005      H1015   1.083       .  S
C1006      C1007   1.414       .  A
C1006      C1011   1.495       .  S
C1007      F1012   1.357       .  S
C1008      C1009   1.402       .  A
C1008      H1013   1.083       .  S
C1009      C1010   1.406       .  A
C1010      F1014   1.358       .  S
C1011      C1016   1.411       .  A
C1011      C1020   1.404       .  A
C1016      C1017   1.404       .  A
C1016      F1021   1.358       .  S
C1017      C1018   1.408       .  A
C1017      H1022   1.083       .  S
C1018      C1019   1.413       .  A
C1019      C1020   1.401       .  A
C1019      F1023   1.357       .  S
C1020      H1024   1.083       .  S
C1025      C1026   1.404       .  A
C1025      C1030   1.399       .  A
C1025      H1035   1.083       .  S
C1026      C1027   1.406       .  A
C1026      C1031   1.486       .  S
C1027      C1028   1.398       .  A
C1027      F1032   1.357       .  S
C1028      C1029   1.408       .  A
C1028      H1033   1.083       .  S
C1029      C1030   1.411       .  A
C1030      F1034   1.357       .  S
C1031      C1036   1.407       .  A
C1031      C1040   1.405       .  A
C1036      C1037   1.398       .  A
C1036      F1041   1.358       .  S
C1037      C1038   1.405       .  A
C1037      H1042   1.083       .  S
C1038      C1039   1.408       .  A
C1039      C1040   1.400       .  A
C1039      F1043   1.357       .  S
C1040      H1044   1.083       .  S
C1045      C1046   1.405       .  A
C1045      C1050   1.398       .  A
C1045      H1055   1.083       .  S
C1046      C1047   1.406       .  A
C1046      C1051   1.483       .  S
C1047      C1048   1.397       .  A
C1047      F1052   1.357       .  S
C1048      C1049   1.406       .  A
C1048      H1053   1.083       .  S
C1049      C1050   1.408       .  A
C1050      F1054   1.358       .  S
C1051      C1056   1.407       .  A
C1051      C1060   1.404       .  A
C1056      C1057   1.397       .  A
C1056      F1061   1.357       .  S
C1057      C1058   1.404       .  A
C1057      H1062   1.083       .  S
C1058      C1059   1.408       .  A
C1059      C1060   1.398       .  A
C1059      F1063   1.358       .  S
C1060      H1064   1.083       .  S
C1065      C1066   1.405       .  A
C1065      C1070   1.400       .  A
C1065      H1075   1.083       .  S
C1066      C1067   1.405       .  A
C1066      C1071   1.484       .  S
C1067      C1068   1.397       .  A
C1067      F1072   1.358       .  S
C1068      C1069   1.407       .  A
C1068      H1073   1.083       .  S
C1069      C1070   1.410       .  A
C1070      F1074   1.357       .  S
C1071      C1076   1.407       .  A
C1071      C1080   1.405       .  A
C1076      C1077   1.398       .  A
C1076      F1081   1.357       .  S
C1077      C1078   1.405       .  A
C1077      H1082   1.083       .  S
C1078      C1079   1.408       .  A
C1079      C1080   1.398       .  A
C1079      F1083   1.358       .  S
C1080      H1084   1.083       .  S
C1085      C1086   1.406       .  A
C1085      C1090   1.401       .  A
C1085      H1095   1.083       .  S
C1086      C1087   1.406       .  A
C1086      C1091   1.486       .  S
C1087      C1088   1.396       .  A
C1087      F1092   1.358       .  S
C1088      C1089   1.407       .  A
C1088      H1093   1.083       .  S
C1089      C1090   1.409       .  A
C1090      F1094   1.357       .  S
C1091      C1096   1.406       .  A
C1091      C1100   1.404       .  A
C1096      C1097   1.398       .  A
C1096      F1101   1.357       .  S
C1097      C1098   1.407       .  A
C1097      H1102   1.083       .  S
C1098      C1099   1.411       .  A
C1099      C1100   1.398       .  A
C1099      F1103   1.357       .  S
C1100      H1104   1.083       .  S
C1105      C1110   1.401   1_554  A
C1105      H1115   1.083       .  S
C1106      C1107   1.410       .  A
C1106      C1111   1.487       .  S
C1107      F1112   1.357   1_545  S
C1108      C1109   1.401       .  A
C1109      C1110   1.408       .  A
C1110      F1114   1.358       .  S
C1111      C1116   1.410       .  A
C1111      C1120   1.402       .  A
C1116      C1117   1.402       .  A
C1117      C1118   1.406       .  A
C1117      H1122   1.083       .  S
C1118      C1119   1.412   1_545  A
C1119      C1120   1.392   1_565  A
C1119      F1123   1.358       .  S
C1120      H1124   1.083   1_545  S
C1125      C1126   1.406   1_565  A
C1125      C1130   1.401       .  A
C1125      H1135   1.083       .  S
C1126      C1127   1.410       .  A
C1126      C1131   1.490       .  S
C1127      C1128   1.399       .  A
C1127      F1132   1.358       .  S
C1128      C1129   1.403   1_545  A
C1128      H1133   1.083       .  S
C1129      C1130   1.407       .  A
C1130      F1134   1.357       .  S
C1131      C1136   1.410       .  A
C1131      C1140   1.402       .  A
C1136      C1137   1.404       .  A
C1136      F1141   1.357       .  S
C1137      C1138   1.407       .  A
C1137      H1142   1.083       .  S
C1138      C1139   1.414       .  A
C1139      C1140   1.396       .  A
C1139      F1143   1.358       .  S
C1140      H1144   1.083       .  S
C1145      C1146   1.406       .  A
C1145      C1150   1.399       .  A
C1145      H1155   1.083       .  S
C1146      C1147   1.408       .  A
C1146      C1151   1.487       .  S
C1147      C1148   1.397       .  A
C1147      F1152   1.357       .  S
C1148      C1149   1.405       .  A
C1148      H1153   1.083       .  S
C1149      C1150   1.409       .  A
C1150      F1154   1.358       .  S
C1151      C1156   1.408       .  A
C1151      C1160   1.405       .  A
C1156      C1157   1.398       .  A
C1156      F1161   1.357       .  S
C1157      C1158   1.405       .  A
C1157      H1162   1.083       .  S
C1158      C1159   1.408       .  A
C1159      C1160   1.398       .  A
C1159      F1163   1.357       .  S
C1160      H1164   1.083       .  S
C1165      C1166   1.403       .  A
C1165      C1170   1.395       .  A
C1165      H1175   1.083       .  S
C1166      C1167   1.408       .  A
C1166      C1171   1.484       .  S
C1167      C1168   1.399       .  A
C1167      F1172   1.357       .  S
C1168      C1169   1.405       .  A
C1168      H1173   1.083       .  S
C1169      C1170   1.409       .  A
C1170      F1174   1.358       .  S
C1171      C1176   1.408       .  A
C1171      C1180   1.403       .  A
C1176      C1177   1.398       .  A
C1176      F1181   1.358       .  S
C1177      C1178   1.406       .  A
C1177      H1182   1.083       .  S
C1178      C1179   1.410       .  A
C1179      C1180   1.396       .  A
C1179      F1183   1.357       .  S
C1180      H1184   1.083       .  S
C1185      H1195   1.083       .  S
C1186      C1187   1.405       .  A
C1187      C1188   1.400       .  A
C1187      F1192   1.358       .  S
C1188      C1189   1.411       .  A
C1188      H1193   1.083       .  S
C1189      C1190   1.407       .  A
C1191      C1196   1.412       .  A
C1191      C1200   1.405       .  A
C1196      C1197   1.407       .  A
C1196      F1201   1.357       .  S
C1197      C1198   1.406       .  A
C1197      H1202   1.083       .  S
C1198      C1199   1.408       .  A
C1199      C1200   1.398       .  A
C1199      F1203   1.357       .  S
C1205      C1206   1.402       .  A
C1205      C1210   1.391       .  A
C1205      H1215   1.083       .  S
C1206      C1207   1.411       .  A
C1206      C1211   1.481       .  S
C1207      C1208   1.402       .  A
C1207      F1212   1.357       .  S
C1208      C1209   1.401       .  A
C1208      H1213   1.083       .  S
C1209      C1210   1.406       .  A
C1210      F1214   1.359       .  S
C1211      C1216   1.408       .  A
C1211      C1220   1.402       .  A
C1216      C1217   1.395       .  A
C1216      F1221   1.358       .  S
C1217      C1218   1.405       .  A
C1217      H1222   1.083       .  S
C1218      C1219   1.412       .  A
C1219      C1220   1.396       .  A
C1219      F1223   1.358       .  S
C1220      H1224   1.083       .  S
C1225      C1226   1.401       .  A
C1225      C1230   1.405       .  A
C1225      H1235   1.083       .  S
C1226      C1227   1.405       .  A
C1226      C1231   1.483       .  S
C1227      C1228   1.399       .  A
C1227      F1232   1.358       .  S
C1228      C1229   1.407       .  A
C1228      H1233   1.083       .  S
C1229      C1230   1.416       .  A
C1230      F1234   1.357       .  S
C1231      C1236   1.407       .  A
C1231      C1240   1.401       .  A
C1236      C1237   1.407       .  A
C1236      F1241   1.357       .  S
C1237      C1238   1.406       .  A
C1237      H1242   1.083       .  S
C1238      C1239   1.408       .  A
C1239      C1240   1.397       .  A
C1239      F1243   1.358       .  S
C1240      H1244   1.083       .  S
C1245      C1246   1.405       .  A
C1245      C1250   1.403       .  A
C1245      H1255   1.083       .  S
C1246      C1247   1.406       .  A
C1246      C1251   1.491       .  S
C1247      C1248   1.402       .  A
C1247      F1252   1.357       .  S
C1248      C1249   1.407       .  A
C1248      H1253   1.080       .  S
C1249      C1250   1.411       .  A
C1250      F1254   1.356       .  S
C1251      C1260   1.406       .  A
C1256      C1257   1.402       .  A
C1257      C1258   1.409       .  A
C1257      H1262   1.083       .  S
C1258      C1259   1.409       .  A
C1259      F1263   1.357       .  S
C1260      H1264   1.083       .  S
C1265      C1266   1.406       .  A
C1265      C1270   1.402       .  A
C1265      H1275   1.083       .  S
C1266      C1267   1.407       .  A
C1266      C1271   1.485       .  S
C1267      C1268   1.396       .  A
C1267      F1272   1.358       .  S
C1268      C1269   1.402       .  A
C1268      H1273   1.084       .  S
C1269      C1270   1.403       .  A
C1270      F1274   1.357       .  S
C1271      C1276   1.405       .  A
C1271      C1280   1.404       .  A
C1276      C1277   1.402       .  A
C1276      F1281   1.357       .  S
C1277      C1278   1.410       .  A
C1277      H1282   1.083       .  S
C1278      C1279   1.410       .  A
C1279      C1280   1.396       .  A
C1279      F1283   1.357       .  S
C1280      H1284   1.083       .  S
C1285      C1286   1.403   1_455  A
C1285      C1290   1.403       .  A
C1285      H1295   1.083       .  S
C1286      C1287   1.408   1_655  A
C1286      C1291   1.489       .  S
C1287      C1288   1.401       .  A
C1287      F1292   1.357   1_455  S
C1288      C1289   1.406       .  A
C1288      H1293   1.083       .  S
C1289      C1290   1.413       .  A
C1290      F1294   1.357       .  S
C1291      C1296   1.408       .  A
C1291      C1300   1.405       .  A
C1296      C1297   1.403       .  A
C1296      F1301   1.357       .  S
C1297      C1298   1.404       .  A
C1297      H1302   1.083       .  S
C1298      C1299   1.407       .  A
C1299      C1300   1.402       .  A
C1299      F1303   1.357       .  S
C1300      H1304   1.083       .  S
C1305      C1306   1.410       .  A
C1305      C1310   1.408       .  A
C1305      H1315   1.083       .  S
C1306      C1307   1.406       .  A
C1306      C1311   1.493       .  S
C1307      C1308   1.400       .  A
C1307      F1312   1.358       .  S
C1308      C1309   1.405       .  A
C1308      H1313   1.083       .  S
C1309      C1310   1.403       .  A
C1310      F1314   1.356       .  S
C1311      C1316   1.408       .  A
C1311      C1320   1.403       .  A
C1316      C1317   1.404       .  A
C1316      F1321   1.357       .  S
C1317      C1318   1.408       .  A
C1317      H1322   1.083       .  S
C1318      C1319   1.415       .  A
C1319      C1320   1.405       .  A
C1319      F1323   1.357       .  S
C1320      H1324   1.083       .  S
C1325      C1326   1.406       .  A
C1325      C1330   1.402       .  A
C1325      H1335   1.083       .  S
C1326      C1327   1.407       .  A
C1327      C1328   1.401       .  A
C1328      C1329   1.409       .  A
C1328      H1333   1.083       .  S
C1329      C1330   1.411       .  A
C1330      F1334   1.357       .  S
C1331      C1336   1.410       .  A
C1331      C1340   1.407       .  A
C1336      C1337   1.401       .  A
C1336      F1341   1.357       .  S
C1337      C1338   1.403       .  A
C1337      H1342   1.083       .  S
C1338      C1339   1.404       .  A
C1339      C1340   1.401       .  A
C1339      F1343   1.357       .  S
C1340      H1344   1.083       .  S
C1345      C1346   1.406       .  A
C1345      C1350   1.410       .  A
C1345      H1355   1.083       .  S
C1346      C1347   1.404       .  A
C1346      C1351   1.490       .  S
C1347      C1348   1.395       .  A
C1347      F1352   1.358       .  S
C1348      C1349   1.409       .  A
C1348      H1353   1.083       .  S
C1349      C1350   1.414       .  A
C1350      F1354   1.357       .  S
C1351      C1356   1.407       .  A
C1351      C1360   1.406       .  A
C1356      C1357   1.405       .  A
C1356      F1361   1.357       .  S
C1357      C1358   1.407       .  A
C1357      H1362   1.083       .  S
C1358      C1359   1.405       .  A
C1359      C1360   1.401       .  A
C1359      F1363   1.356       .  S
C1360      H1364   1.083       .  S
C1365      C1366   1.408       .  A
C1365      C1370   1.405       .  A
C1365      H1375   1.083       .  S
C1366      C1367   1.407       .  A
C1367      C1368   1.403       .  A
C1368      C1369   1.407       .  A
C1368      H1373   1.083       .  S
C1369      C1370   1.406       .  A
C1370      F1374   1.356       .  S
C1371      C1376   1.405       .  A
C1371      C1380   1.403       .  A
C1376      C1377   1.405       .  A
C1377      C1378   1.409       .  A
C1377      H1382   1.083       .  S
C1378      C1379   1.408       .  A
C1379      C1380   1.398       .  A
C1379      F1383   1.358       .  S
C1380      H1384   1.084       .  S
C1385      C1386   1.407       .  A
C1385      C1390   1.404       .  A
C1385      H1395   1.083       .  S
C1386      C1387   1.408       .  A
C1386      C1391   1.488       .  S
C1387      C1388   1.396       .  A
C1387      F1392   1.358       .  S
C1388      C1389   1.401       .  A
C1388      H1393   1.083       .  S
C1389      C1390   1.405       .  A
C1390      F1394   1.355       .  S
C1391      C1396   1.407       .  A
C1391      C1400   1.404       .  A
C1396      C1397   1.404       .  A
C1396      F1401   1.357       .  S
C1397      C1398   1.409       .  A
C1397      H1402   1.083       .  S
C1398      C1399   1.410       .  A
C1399      C1400   1.397       .  A
C1399      F1403   1.357       .  S
C1400      H1404   1.083       .  S
C1405      C1406   1.406       .  A
C1405      C1410   1.401       .  A
C1405      H1415   1.083       .  S
C1406      C1407   1.410       .  A
C1406      C1411   1.495       .  S
C1407      C1408   1.405       .  A
C1407      F1412   1.357       .  S
C1408      C1409   1.404       .  A
C1408      H1413   1.083       .  S
C1409      C1410   1.406       .  A
C1410      F1414   1.358       .  S
C1411      C1416   1.410       .  A
C1411      C1420   1.404       .  A
C1416      C1417   1.403       .  A
C1416      F1421   1.357       .  S
C1417      C1418   1.407       .  A
C1417      H1422   1.083       .  S
C1418      C1419   1.414       .  A
C1419      C1420   1.403       .  A
C1419      F1423   1.357       .  S
C1420      H1424   1.083       .  S
C1425      C1426   1.408       .  A
C1425      C1430   1.402       .  A
C1425      H1435   1.083       .  S
C1426      C1427   1.409       .  A
C1426      C1431   1.501       .  S
C1427      C1428   1.409       .  A
C1427      F1432   1.357       .  S
C1428      C1429   1.411       .  A
C1428      H1433   1.083       .  S
C1429      C1430   1.409       .  A
C1430      F1434   1.357   1_655  S
C1431      C1436   1.415       .  A
C1431      C1440   1.405       .  A
C1436      C1437   1.411       .  A
C1436      F1441   1.357       .  S
C1437      C1438   1.404       .  A
C1437      H1442   1.084       .  S
C1438      C1439   1.406       .  A
C1439      C1440   1.398       .  A
C1439      F1443   1.357       .  S
C1440      H1444   1.084       .  S
C1445      C1446   1.404       .  A
C1445      C1450   1.400       .  A
C1445      H1455   1.084       .  S
C1446      C1447   1.408       .  A
C1446      C1451   1.485       .  S
C1447      C1448   1.400       .  A
C1447      F1452   1.357       .  S
C1448      C1449   1.402       .  A
C1448      H1453   1.084       .  S
C1449      C1450   1.408       .  A
C1450      F1454   1.358       .  S
C1451      C1456   1.405       .  A
C1456      F1461   1.357   1_655  S
C1457      C1458   1.411   1_554  A
C1457      H1462   1.083   1_655  S
C1458      C1459   1.411       .  A
C1459      C1460   1.398   1_556  A
C1459      F1463   1.357       .  S
C1460      H1464   1.084       .  S
C1465      C1466   1.404       .  A
C1465      C1470   1.402       .  A
C1465      H1475   1.083       .  S
C1466      C1467   1.404       .  A
C1466      C1471   1.487       .  S
C1467      C1468   1.404       .  A
C1467      F1472   1.357       .  S
C1468      C1469   1.412       .  A
C1468      H1473   1.083       .  S
C1469      C1470   1.411       .  A
C1470      F1474   1.357       .  S
C1471      C1476   1.406       .  A
C1471      C1480   1.405       .  A
C1476      C1477   1.401       .  A
C1476      F1481   1.357       .  S
C1477      C1478   1.404       .  A
C1477      H1482   1.083       .  S
C1478      C1479   1.407       .  A
C1479      C1480   1.403       .  A
C1479      F1483   1.357       .  S
C1480      H1484   1.083       .  S
C1485      C1486   1.403       .  A
C1485      C1490   1.397       .  A
C1485      H1495   1.083       .  S
C1486      C1487   1.412       .  A
C1486      C1491   1.491       .  S
C1487      C1488   1.408       .  A
C1487      F1492   1.357       .  S
C1488      C1489   1.402       .  A
C1488      H1493   1.082       .  S
C1489      C1490   1.406       .  A
C1490      F1494   1.357       .  S
C1491      C1500   1.406       .  A
C1496      C1497   1.402       .  A
C1496      F1501   1.357       .  S
C1497      C1498   1.411       .  A
C1497      H1502   1.083       .  S
C1498      C1499   1.409       .  A
C1499      F1503   1.357       .  S
C1500      H1504   1.083       .  S
C1505      C1506   1.406       .  A
C1505      C1510   1.401       .  A
C1505      H1515   1.083       .  S
C1506      C1507   1.407       .  A
C1506      C1511   1.487       .  S
C1507      C1508   1.401       .  A
C1507      F1512   1.357       .  S
C1508      C1509   1.403       .  A
C1508      H1513   1.083       .  S
C1509      C1510   1.405       .  A
C1510      F1514   1.358       .  S
C1511      C1516   1.407       .  A
C1511      C1520   1.403       .  A
C1516      C1517   1.399       .  A
C1516      F1521   1.358       .  S
C1517      C1518   1.407       .  A
C1517      H1522   1.083       .  S
C1518      C1519   1.413       .  A
C1519      C1520   1.403       .  A
C1519      F1523   1.357       .  S
C1520      H1524   1.083       .  S
C1525      C1526   1.405       .  A
C1525      C1530   1.401       .  A
C1525      H1535   1.083       .  S
C1526      C1527   1.408       .  A
C1526      C1531   1.492       .  S
C1527      C1528   1.406       .  A
C1527      F1532   1.357       .  S
C1528      C1529   1.406       .  A
C1528      H1533   1.083       .  S
C1529      C1530   1.408       .  A
C1530      F1534   1.358       .  S
C1531      C1536   1.410       .  A
C1531      C1540   1.400       .  A
C1536      C1537   1.408       .  A
C1536      F1541   1.357       .  S
C1537      C1538   1.408       .  A
C1537      H1542   1.083       .  S
C1538      C1539   1.416       .  A
C1539      C1540   1.399       .  A
C1539      F1543   1.357       .  S
C1540      H1544   1.083       .  S
C1545      C1546   1.405       .  A
C1545      C1550   1.403       .  A
C1545      H1555   1.083       .  S
C1546      C1547   1.410       .  A
C1546      C1551   1.499       .  S
C1547      C1548   1.407       .  A
C1547      F1552   1.357       .  S
C1548      C1549   1.407       .  A
C1548      H1553   1.079       .  S
C1549      C1550   1.411       .  A
C1550      F1554   1.357       .  S
C1551      C1556   1.408       .  A
C1551      C1560   1.408       .  A
C1556      C1557   1.403       .  A
C1556      F1561   1.357       .  S
C1557      C1558   1.409       .  A
C1557      H1562   1.083       .  S
C1558      C1559   1.411       .  A
C1559      C1560   1.407       .  A
C1559      F1563   1.357       .  S
C1560      H1564   1.083       .  S
C1565      C1570   1.399   1_554  A
C1565      H1575   1.083       .  S
C1566      C1567   1.405       .  A
C1566      C1571   1.485       .  S
C1567      F1572   1.357       .  S
C1568      C1569   1.408   1_554  A
C1568      H1573   1.083       .  S
C1569      C1570   1.411       .  A
C1570      F1574   1.358       .  S
C1571      C1576   1.408       .  A
C1571      C1580   1.405       .  A
C1576      C1577   1.398       .  A
C1576      F1581   1.358       .  S
C1577      C1578   1.403       .  A
C1577      H1582   1.083       .  S
C1578      C1579   1.406       .  A
C1579      C1580   1.399       .  A
C1579      F1583   1.357       .  S
C1580      H1584   1.083       .  S
