geometry optimzed in LAMMPS
_audit_creation_date              2020-11-30 
_audit_creation_method            'lammps2cif' 
_symmetry_space_group_name_H-M    'P1' 
_symmetry_Int_Tables_number       1 
_symmetry_cell_setting            triclinic 
loop_ 
_symmetry_equiv_pos_as_xyz 
  x,y,z 
_cell_length_a                    68.44690553 
_cell_length_b                    68.33773407628547 
_cell_length_c                    68.39231195340118 
_cell_angle_alpha                 90.06921984643967 
_cell_angle_beta                  89.96636223765968 
_cell_angle_gamma                 89.83969387127924 
loop_ 
_atom_site_label 
_atom_site_type_symbol 
_atom_site_fract_x 
_atom_site_fract_y 
_atom_site_fract_z 
_atom_site_charge 
N1          N  0.62267496  0.13384300  0.82432222    -0.26900
N2          N  0.63384131  0.14942981  0.82200459    -0.34800
C3          C  0.64037356  0.15002049  0.80348526     0.01400
C4          C  0.63276963  0.13421619  0.79348581     0.07400
C5          C  0.62153225  0.12426044  0.80708895    -0.05700
H6          H  0.64988786  0.16122832  0.79769478     0.08100
H7          H  0.61376095  0.11068225  0.80483063     0.09300
Cu8        Cu  0.63898788  0.16986732  0.84372313     0.44200
Cu9        Cu  0.61143056  0.12586785  0.85162874     0.42000
Cu10       Cu  0.61761433  0.16232170  0.89085124     0.43900
N11         N  0.63806025  0.19118714  0.86519446    -0.34300
N12         N  0.62921145  0.18904129  0.88223175    -0.28600
C13         C  0.62992132  0.20616919  0.89204521    -0.04700
C14         C  0.63991929  0.21954296  0.88061163     0.07500
C15         C  0.64489017  0.20950819  0.86377857     0.01300
H16         H  0.62390892  0.20859238  0.90648170     0.09000
H17         H  0.65253648  0.21522487  0.85117895     0.08100
N18         N  0.60980558  0.13327258  0.89542166    -0.35800
N19         N  0.60668968  0.12030796  0.88135506    -0.27900
C20         C  0.60264185  0.10285913  0.88959652    -0.03200
C21         C  0.60365579  0.10488740  0.90970704     0.05400
C22         C  0.60828961  0.12430502  0.91286353     0.03500
H23         H  0.60041224  0.08941720  0.88153882     0.08600
H24         H  0.61085539  0.13131172  0.92681894     0.07500
N25         N  0.77403753  0.11646606  0.67114341    -0.26900
N26         N  0.77017450  0.13504186  0.67495883    -0.34800
C27         C  0.75150842  0.13689066  0.68064241     0.01400
C28         C  0.74293636  0.11868196  0.68012721     0.07400
C29         C  0.75756430  0.10597198  0.67396383    -0.05700
H30         H  0.74470998  0.15053260  0.68499201     0.08100
H31         H  0.75655067  0.09024110  0.67253132     0.09300
Cu32       Cu  0.79014056  0.15735595  0.67258274     0.44200
Cu33       Cu  0.80241230  0.10717905  0.66413051     0.42000
Cu34       Cu  0.83791691  0.14740237  0.65460372     0.43900
N35         N  0.81063379  0.17892225  0.66846300    -0.34300
N36         N  0.82814082  0.17575895  0.66093404    -0.28600
C37         C  0.83775816  0.19296818  0.66012829    -0.04700
C38         C  0.82568665  0.20741054  0.66781979     0.07500
C39         C  0.80869266  0.19794210  0.67297937     0.01300
H40         H  0.85267053  0.19468818  0.65518368     0.09000
H41         H  0.79585431  0.20437573  0.67965397     0.08100
N42         N  0.84467131  0.11748999  0.65416430    -0.35800
N43         N  0.83230691  0.10322023  0.65847398    -0.27900
C44         C  0.84220120  0.08611917  0.65881749    -0.03200
C45         C  0.86156263  0.08970750  0.65420945     0.05400
C46         C  0.86256019  0.10971597  0.65126830     0.03500
H47         H  0.83576627  0.07208374  0.66220860     0.08600
H48         H  0.87552314  0.11813738  0.64802908     0.07500
N49         N  0.77681628  0.34390889  0.86099900    -0.26900
N50         N  0.77360934  0.33299115  0.84536213    -0.34800
C51         C  0.75536514  0.32586599  0.84613911     0.01400
C52         C  0.74655648  0.33279951  0.86295000     0.07400
C53         C  0.76050967  0.34425099  0.87204438    -0.05700
H54         H  0.74898713  0.31635548  0.83522803     0.08100
H55         H  0.75917712  0.35164225  0.88598104     0.09300
Cu56       Cu  0.79387228  0.32848326  0.82337530     0.44200
Cu57       Cu  0.80402973  0.35574993  0.86729532     0.42000
Cu58       Cu  0.84216886  0.34710913  0.83042953     0.43900
N59         N  0.81487446  0.32839403  0.80163988    -0.34300
N60         N  0.83246491  0.33605772  0.80368479    -0.28600
C61         C  0.84215532  0.33431548  0.78657243    -0.04700
C62         C  0.83008456  0.32483494  0.77334571     0.07500
C63         C  0.81297503  0.32128995  0.78342961     0.01300
H64         H  0.85704594  0.33899527  0.78414617     0.09000
H65         H  0.80001600  0.31413386  0.77791304     0.08100
N66         N  0.84751090  0.35584191  0.85921310    -0.35800
N67         N  0.83369701  0.35999103  0.87214663    -0.27900
C68         C  0.84210762  0.36432463  0.88940623    -0.03200
C69         C  0.86212338  0.36249422  0.88735045     0.05400
C70         C  0.86502914  0.35703351  0.86808058     0.03500
H71         H  0.83416917  0.36714671  0.90280524     0.08600
H72         H  0.87883149  0.35353487  0.86117611     0.07500
N73         N  0.64431868  0.27066426  0.89577677    -0.26900
N74         N  0.65864671  0.26907762  0.88288834    -0.34800
C75         C  0.65924497  0.25074597  0.87592682     0.01400
C76         C  0.64472115  0.24007718  0.88489250     0.07400
C77         C  0.63550539  0.25309087  0.89748829    -0.05700
H78         H  0.66962014  0.24556030  0.86514855     0.08100
H79         H  0.62298687  0.25018427  0.90668981     0.09300
Cu80       Cu  0.67778625  0.29111696  0.87562238     0.44200
Cu81       Cu  0.63701493  0.29741837  0.90874095     0.42000
Cu82       Cu  0.67292641  0.33656018  0.89974997     0.43900
N83         N  0.69911267  0.31228824  0.87456204    -0.34300
N84         N  0.69805639  0.32878480  0.88457713    -0.28600
C85         C  0.71487742  0.33871251  0.88223860    -0.04700
C86         C  0.72686341  0.32794163  0.86992546     0.07500
C87         C  0.71638874  0.31133156  0.86531442     0.01300
H88         H  0.71798727  0.35282136  0.88869876     0.09000
H89         H  0.72114626  0.29919914  0.85629847     0.08100
N90         N  0.64482192  0.34108864  0.91037556    -0.35800
N91         N  0.63205333  0.32710901  0.91433520    -0.27900
C92         C  0.61491391  0.33548920  0.91938292    -0.03200
C93         C  0.61695384  0.35561225  0.91818791     0.05400
C94         C  0.63604216  0.35859729  0.91241951     0.03500
H95         H  0.60155671  0.32752292  0.92213402     0.08600
H96         H  0.64281152  0.37247237  0.90901687     0.07500
N97         N  0.84083246  0.25855399  0.66857747    -0.26900
N98         N  0.83045394  0.25761428  0.68484726    -0.34800
C99         C  0.82345607  0.23937524  0.68689608     0.01400
C100        C  0.83007057  0.22818041  0.67137697     0.07400
C101        C  0.84111095  0.24075798  0.66004270    -0.05700
H102        H  0.81466104  0.23447740  0.69908648     0.08100
H103        H  0.84842794  0.23735577  0.64642694     0.09300
Cu104      Cu  0.82836306  0.28057100  0.70462903     0.44200
Cu105      Cu  0.85306912  0.28458775  0.65889864     0.42000
Cu106      Cu  0.85969846  0.32234920  0.69631215     0.43900
N107        N  0.83362243  0.30213166  0.72534403    -0.34300
N108        N  0.84614709  0.31665307  0.72301249    -0.28600
C109        C  0.84715827  0.32695935  0.73982563    -0.04700
C110        C  0.83444845  0.31860679  0.75318038     0.07500
C111        C  0.82610507  0.30299011  0.74346996     0.01300
H112        H  0.85605923  0.33983906  0.74198319     0.09000
H113        H  0.81560069  0.29272361  0.74928618     0.08100
N114        N  0.86551845  0.32636329  0.66665088    -0.35800
N115        N  0.86204942  0.31302614  0.65304101    -0.27900
C116        C  0.86452089  0.32116771  0.63529556    -0.03200
C117        C  0.87017571  0.34039591  0.63784672     0.05400
C118        C  0.87074423  0.34319001  0.65788215     0.03500
H119        H  0.86210820  0.31370240  0.62155133     0.08600
H120        H  0.87364477  0.35675823  0.66549930     0.07500
N121        N  0.69201629  0.10492360  0.68764254    -0.26900
N122        N  0.69502531  0.11657810  0.70279607    -0.34800
C123        C  0.71365720  0.12266926  0.70257998     0.01400
C124        C  0.72299760  0.11421346  0.68677253     0.07400
C125        C  0.70888529  0.10301709  0.67756557    -0.05700
H126        H  0.71991376  0.13270525  0.71308542     0.08100
H127        H  0.71045501  0.09502841  0.66398705     0.09300
Cu128      Cu  0.67401635  0.12366217  0.72352447     0.44200
Cu129      Cu  0.66425729  0.09478739  0.68028210     0.42000
Cu130      Cu  0.62561472  0.10639024  0.71596943     0.43900
N131        N  0.65255474  0.12514029  0.74489931    -0.34300
N132        N  0.63493535  0.11759353  0.74271265    -0.28600
C133        C  0.62508726  0.11935940  0.75972581    -0.04700
C134        C  0.63706227  0.12877455  0.77306888     0.07500
C135        C  0.65428759  0.13228950  0.76312964     0.01300
H136        H  0.61023175  0.11453127  0.76207593     0.09000
H137        H  0.66732953  0.13909697  0.76888750     0.08100
N138        N  0.62060150  0.09838920  0.68698033    -0.35800
N139        N  0.63439314  0.09311340  0.67442512    -0.27900
C140        C  0.62609619  0.08963028  0.65689661    -0.03200
C141        C  0.60627772  0.09331490  0.65839994     0.05400
C142        C  0.60331420  0.09887542  0.67761852     0.03500
H143        H  0.63408954  0.08603662  0.64371428     0.08600
H144        H  0.58965888  0.10341544  0.68420895     0.07500
N145        N  0.19670941  0.34159322  0.86929211    -0.26900
N146        N  0.19965894  0.33189103  0.85280160    -0.34800
C147        C  0.21831145  0.32586319  0.85195582     0.01400
C148        C  0.22781118  0.33224338  0.86854041     0.07400
C149        C  0.21374492  0.34226899  0.87925988    -0.05700
H150        H  0.22449919  0.31737745  0.84009404     0.08100
H151        H  0.21553718  0.34875210  0.89358242     0.09300
Cu152      Cu  0.17873179  0.32734621  0.83158749     0.44200
Cu153      Cu  0.16877811  0.35122121  0.87768343     0.42000
Cu154      Cu  0.13090176  0.34582052  0.83943421     0.43900
N155        N  0.15774326  0.32764045  0.80995855    -0.34300
N156        N  0.14030428  0.33566358  0.81221028    -0.28600
C157        C  0.13062013  0.33461148  0.79505601    -0.04700
C158        C  0.14253412  0.32512437  0.78162861     0.07500
C159        C  0.15953437  0.32087620  0.79160442     0.01300
H160        H  0.11583851  0.33974281  0.79272358     0.09000
H161        H  0.17240147  0.31364312  0.78586530     0.08100
N162        N  0.12517458  0.35195590  0.86882246    -0.35800
N163        N  0.13863709  0.35463572  0.88248325    -0.27900
C164        C  0.12959034  0.35763627  0.89978938    -0.03200
C165        C  0.10956701  0.35646184  0.89692014     0.05400
C166        C  0.10736473  0.35279272  0.87716329     0.03500
H167        H  0.13705343  0.35947019  0.91360726     0.08600
H168        H  0.09376968  0.35048627  0.86944424     0.07500
N169        N  0.19973549  0.12441984  0.66706948    -0.26900
N170        N  0.20287149  0.14243573  0.67332209    -0.34800
C171        C  0.22127754  0.14386664  0.67991182     0.01400
C172        C  0.23036250  0.12598704  0.67740577     0.07400
C173        C  0.21634820  0.11393635  0.66913284    -0.05700
H174        H  0.22760304  0.15701278  0.68602273     0.08100
H175        H  0.21786468  0.09856028  0.66564852     0.09300
Cu176      Cu  0.18220592  0.16446580  0.67213527     0.44200
Cu177      Cu  0.17206110  0.11550558  0.65811200     0.42000
Cu178      Cu  0.13500264  0.15483025  0.65141254     0.43900
N179        N  0.16135812  0.18590961  0.66770028    -0.34300
N180        N  0.14425872  0.18291817  0.65924514    -0.28600
C181        C  0.13432704  0.20002894  0.65884018    -0.04700
C182        C  0.14573621  0.21424093  0.66772392     0.07500
C183        C  0.16268201  0.20472236  0.67316763     0.01300
H184        H  0.11952521  0.20173425  0.65356041     0.09000
H185        H  0.17497379  0.21093578  0.68091425     0.08100
N186        N  0.12924394  0.12480564  0.64975985    -0.35800
N187        N  0.14239504  0.11089688  0.65295528    -0.27900
C188        C  0.13334011  0.09344902  0.65327888    -0.03200
C189        C  0.11365370  0.09640435  0.64985036     0.05400
C190        C  0.11156732  0.11641168  0.64754793     0.03500
H191        H  0.14054384  0.07962937  0.65611592     0.08600
H192        H  0.09804523  0.12437787  0.64547933     0.07500
N193        N  0.34968975  0.13149376  0.82255131    -0.26900
N194        N  0.33935954  0.14765981  0.82006569    -0.34800
C195        C  0.33283647  0.14835820  0.80155359     0.01400
C196        C  0.33964676  0.13201936  0.79172696     0.07400
C197        C  0.35036532  0.12161762  0.80544893    -0.05700
H198        H  0.32405596  0.16010221  0.79557863     0.08100
H199        H  0.35761175  0.10768765  0.80331905     0.09300
Cu200      Cu  0.33604003  0.16877299  0.84159837     0.44200
Cu201      Cu  0.36085417  0.12392038  0.84989648     0.42000
Cu202      Cu  0.36245364  0.16281787  0.88720702     0.43900
N203        N  0.33878569  0.19055646  0.86252487    -0.34300
N204        N  0.34927827  0.18899805  0.87868919    -0.28600
C205        C  0.34897463  0.20634020  0.88815038    -0.04700
C206        C  0.33759007  0.21925095  0.87744640     0.07500
C207        C  0.33135723  0.20871828  0.86138096     0.01300
H208        H  0.35620439  0.20921799  0.90191454     0.09000
H209        H  0.32238389  0.21398094  0.84946691     0.08100
N210        N  0.36934657  0.13356392  0.89256469    -0.35800
N211        N  0.36784472  0.11953028  0.87927566    -0.27900
C212        C  0.36996634  0.10209140  0.88814204    -0.03200
C213        C  0.37330867  0.10523348  0.90781813     0.05400
C214        C  0.37291888  0.12535358  0.91013073     0.03500
H215        H  0.36838398  0.08809388  0.88091441     0.08600
H216        H  0.37358013  0.13333582  0.92378498     0.07500
N217        N  0.33339822  0.27053359  0.89221979    -0.26900
N218        N  0.31794858  0.26857595  0.88078567    -0.34800
C219        C  0.31713954  0.25012957  0.87410888     0.01400
C220        C  0.33268410  0.23979742  0.88179567     0.07400
C221        C  0.34272391  0.25313089  0.89329881    -0.05700
H222        H  0.30593828  0.24462912  0.86441221     0.08100
H223        H  0.35613335  0.25056477  0.90127152     0.09300
Cu224      Cu  0.29775422  0.29041649  0.87519599     0.44200
Cu225      Cu  0.34161557  0.29758031  0.90377430     0.42000
Cu226      Cu  0.30601445  0.33742201  0.89478990     0.43900
N227        N  0.27634942  0.31181614  0.87573858    -0.34300
N228        N  0.27876822  0.32900812  0.88422020    -0.28600
C229        C  0.26172326  0.33898095  0.88354181    -0.04700
C230        C  0.24813314  0.32750262  0.87385653     0.07500
C231        C  0.25796256  0.31047066  0.86905999     0.01300
H232        H  0.25956782  0.35365449  0.88910590     0.09000
H233        H  0.25208233  0.29786336  0.86152740     0.08100
N234        N  0.33524751  0.34154267  0.90225059    -0.35800
N235        N  0.34769899  0.32736927  0.90676441    -0.27900
C236        C  0.36526275  0.33535936  0.91064356    -0.03200
C237        C  0.36386612  0.35538496  0.90801944     0.05400
C238        C  0.34472738  0.35876923  0.90259143     0.03500
H239        H  0.37836362  0.32709517  0.91390814     0.08600
H240        H  0.33820508  0.37272292  0.89890228     0.07500
N241        N  0.28070348  0.10981038  0.68446742    -0.26900
N242        N  0.27825943  0.12138028  0.69978653    -0.34800
C243        C  0.25999908  0.12861146  0.69961151     0.01400
C244        C  0.25033079  0.12100424  0.68361049     0.07400
C245        C  0.26383439  0.10907518  0.67430390    -0.05700
H246        H  0.25415667  0.13861840  0.71041806     0.08100
H247        H  0.26183666  0.10119645  0.66072484     0.09300
Cu248      Cu  0.29945018  0.12620815  0.72084609     0.44200
Cu249      Cu  0.30784044  0.09804335  0.67727118     0.42000
Cu250      Cu  0.34722555  0.10684500  0.71310927     0.43900
N251        N  0.32044480  0.12517456  0.74262163    -0.34300
N252        N  0.33781086  0.11696581  0.74038693    -0.28600
C253        C  0.34734418  0.11755254  0.75766885    -0.04700
C254        C  0.33541628  0.12688754  0.77121202     0.07500
C255        C  0.31856937  0.13154687  0.76111417     0.01300
H256        H  0.36203885  0.11218752  0.76003023     0.09000
H257        H  0.30574531  0.13885090  0.76685835     0.08100
N258        N  0.35165047  0.09962233  0.68371047    -0.35800
N259        N  0.33752138  0.09524922  0.67122528    -0.27900
C260        C  0.34541785  0.09181934  0.65350298    -0.03200
C261        C  0.36537285  0.09453803  0.65478428     0.05400
C262        C  0.36881643  0.09955424  0.67406912     0.03500
H263        H  0.33710196  0.08888219  0.64037950     0.08600
H264        H  0.38274106  0.10327907  0.68053864     0.07500
N265        N  0.12977986  0.26517932  0.67237339    -0.26900
N266        N  0.13908656  0.26249441  0.68912203    -0.34800
C267        C  0.14594215  0.24408590  0.68984232     0.01400
C268        C  0.14046662  0.23449672  0.67295175     0.07400
C269        C  0.13015627  0.24823903  0.66216610    -0.05700
H270        H  0.15416969  0.23804869  0.70192990     0.08100
H271        H  0.12405919  0.24629780  0.64770579     0.09300
Cu272      Cu  0.14149630  0.28318309  0.71118296     0.44200
Cu273      Cu  0.11904025  0.29257041  0.66374372     0.42000
Cu274      Cu  0.12156698  0.33006852  0.70223563     0.43900
N275        N  0.13848694  0.30409188  0.73296851    -0.34300
N276        N  0.12987228  0.32115179  0.73002339    -0.28600
C277        C  0.12925197  0.33111142  0.74704439    -0.04700
C278        C  0.13822738  0.31980966  0.76124024     0.07500
C279        C  0.14398737  0.30285339  0.75178789     0.01300
H280        H  0.12352846  0.34578811  0.74874475     0.09000
H281        H  0.15159372  0.29050196  0.75813554     0.08100
N282        N  0.11722450  0.33598333  0.67276215    -0.35800
N283        N  0.11526934  0.32261467  0.65886816    -0.27900
C284        C  0.11299350  0.33181495  0.64155198    -0.03200
C285        C  0.11401151  0.35181745  0.64473652     0.05400
C286        C  0.11675565  0.35387857  0.66463328     0.03500
H287        H  0.11178954  0.32448812  0.62757486     0.08600
H288        H  0.11852814  0.36742653  0.67263167     0.07500
N289        N  0.36043912  0.82517467  0.82219194    -0.26900
N290        N  0.35115972  0.80846334  0.81946388    -0.34800
C291        C  0.34513624  0.80731765  0.80086716     0.01400
C292        C  0.35099247  0.82401424  0.79123078     0.07400
C293        C  0.36077077  0.83507529  0.80511663    -0.05700
H294        H  0.33670729  0.79533971  0.79491290     0.08100
H295        H  0.36661797  0.84964656  0.80325932     0.09300
Cu296      Cu  0.34629793  0.78790911  0.84089008     0.44200
Cu297      Cu  0.36929376  0.83403547  0.84997504     0.42000
Cu298      Cu  0.36139973  0.79730041  0.88942397     0.43900
N299        N  0.34541594  0.76693512  0.86243621    -0.34300
N300        N  0.35216700  0.76969148  0.88031097    -0.28600
C301        C  0.35066457  0.75273638  0.89031450    -0.04700
C302        C  0.34224110  0.73893956  0.87807002     0.07500
C303        C  0.33903393  0.74848756  0.86062203     0.01300
H304        H  0.35476490  0.75078877  0.90546321     0.09000
H305        H  0.33276857  0.74239059  0.84744033     0.08100
N306        N  0.36727520  0.82695204  0.89386166    -0.35800
N307        N  0.37096259  0.83984984  0.87988309    -0.27900
C308        C  0.37379249  0.85754169  0.88811273    -0.03200
C309        C  0.37147602  0.85575681  0.90812122     0.05400
C310        C  0.36728105  0.83623875  0.91123063     0.03500
H311        H  0.37642678  0.87087928  0.88003507     0.08600
H312        H  0.36426010  0.82930093  0.92511492     0.07500
N313        N  0.20552524  0.82253033  0.67361879    -0.26900
N314        N  0.20840845  0.80466048  0.68042097    -0.34800
C315        C  0.22702615  0.80297485  0.68648269     0.01400
C316        C  0.23642586  0.82048451  0.68291391     0.07400
C317        C  0.22241279  0.83257544  0.67470495    -0.05700
H318        H  0.23339347  0.78980242  0.69253720     0.08100
H319        H  0.22424360  0.84763708  0.67022524     0.09300
Cu320      Cu  0.18725843  0.78298555  0.67938634     0.44200
Cu321      Cu  0.17828627  0.83202582  0.66401234     0.42000
Cu322      Cu  0.14188393  0.79388348  0.65408628     0.43900
N323        N  0.16558355  0.76245561  0.67412469    -0.34300
N324        N  0.14941794  0.76590740  0.66408529    -0.28600
C325        C  0.13867093  0.74936299  0.66360088    -0.04700
C326        C  0.14847983  0.73501081  0.67407822     0.07500
C327        C  0.16543256  0.74386531  0.68049335     0.01300
H328        H  0.12434924  0.74817507  0.65702898     0.09000
H329        H  0.17674155  0.73735767  0.68943931     0.08100
N330        N  0.13659405  0.82395775  0.65127624    -0.35800
N331        N  0.14948209  0.83759592  0.65597541    -0.27900
C332        C  0.14075179  0.85525297  0.65524405    -0.03200
C333        C  0.12156624  0.85271961  0.64947149     0.05400
C334        C  0.11944905  0.83272662  0.64695946     0.03500
H335        H  0.14780324  0.86892332  0.65891038     0.08600
H336        H  0.10612638  0.82503882  0.64337121     0.07500
N337        N  0.19820636  0.61941824  0.87489358    -0.26900
N338        N  0.20113656  0.62751661  0.85760736    -0.34800
C339        C  0.21973520  0.63371085  0.85651046     0.01400
C340        C  0.22910126  0.62894629  0.87378895     0.07400
C341        C  0.21504771  0.61982561  0.88512797    -0.05700
H342        H  0.22607073  0.64088118  0.84392619     0.08100
H343        H  0.21676301  0.61445270  0.89990254     0.09300
Cu344      Cu  0.17992598  0.62834505  0.83588599     0.44200
Cu345      Cu  0.17072604  0.60970333  0.88347747     0.42000
Cu346      Cu  0.13424394  0.60282433  0.84456389     0.43900
N347        N  0.15875854  0.62381804  0.81457261    -0.34300
N348        N  0.14258558  0.61357314  0.81715967    -0.28600
C349        C  0.13257974  0.61314037  0.80013668    -0.04700
C350        C  0.14288482  0.62384262  0.78635099     0.07500
C351        C  0.15933354  0.63037494  0.79606959     0.01300
H352        H  0.11849850  0.60626421  0.79817333     0.09000
H353        H  0.17091351  0.63933034  0.79013362     0.08100
N354        N  0.12846981  0.59951715  0.87444541    -0.35800
N355        N  0.14144315  0.60308159  0.88835731    -0.27900
C356        C  0.13244892  0.60249825  0.90584910    -0.03200
C357        C  0.11298656  0.59800560  0.90291759     0.05400
C358        C  0.11097927  0.59608743  0.88286210     0.03500
H359        H  0.13952209  0.60543029  0.91968506     0.08600
H360        H  0.09756290  0.59353314  0.87491425     0.07500
N361        N  0.27992331  0.63206679  0.89005990    -0.26900
N362        N  0.27803654  0.64853424  0.88008044    -0.34800
C363        C  0.25979044  0.64982737  0.87297204     0.01400
C364        C  0.24946846  0.63359430  0.87897966     0.07400
C365        C  0.26261222  0.62262515  0.88988723    -0.05700
H366        H  0.25436849  0.66186206  0.86423755     0.08100
H367        H  0.26000596  0.60850794  0.89652156     0.09300
Cu368      Cu  0.29969630  0.66939831  0.87741841     0.44200
Cu369      Cu  0.30690489  0.62272242  0.90121330     0.42000
Cu370      Cu  0.34658081  0.65882042  0.89687045     0.43900
N371        N  0.32094223  0.69052616  0.88110943    -0.34300
N372        N  0.33800366  0.68706404  0.88945264    -0.28600
C373        C  0.34804278  0.70398901  0.89062221    -0.04700
C374        C  0.33673555  0.71863004  0.88233915     0.07500
C375        C  0.31976204  0.70954609  0.87636312     0.01300
H376        H  0.36277918  0.70533542  0.89616406     0.09000
H377        H  0.30746495  0.71626188  0.86901176     0.08100
N378        N  0.35083023  0.62906666  0.90183333    -0.35800
N379        N  0.33666414  0.61620808  0.90469317    -0.27900
C380        C  0.34476898  0.59844920  0.90777180    -0.03200
C381        C  0.36488533  0.60021321  0.90635541     0.05400
C382        C  0.36816431  0.61974963  0.90246160     0.03500
H383        H  0.33660385  0.58508921  0.90991348     0.08600
H384        H  0.38216349  0.62671771  0.90023248     0.07500
N385        N  0.12436606  0.62881799  0.73626904    -0.26900
N386        N  0.13583935  0.64429874  0.73771071    -0.34800
C387        C  0.14403570  0.64465170  0.75554024     0.01400
C388        C  0.13732395  0.62879729  0.76607065     0.07400
C389        C  0.12479458  0.61903854  0.75343908    -0.05700
H390        H  0.15394113  0.65588482  0.76058369     0.08100
H391        H  0.11691758  0.60565568  0.75637035     0.09300
Cu392      Cu  0.13930023  0.66529652  0.71611654     0.44200
Cu393      Cu  0.10997018  0.62175584  0.71016197     0.42000
Cu394      Cu  0.11254298  0.66051864  0.67220408     0.43900
N395        N  0.13830022  0.68719630  0.69516783    -0.34300
N396        N  0.12740380  0.68611739  0.67927351    -0.28600
C397        C  0.12902334  0.70304053  0.66923685    -0.04700
C398        C  0.14180797  0.71515633  0.67926080     0.07500
C399        C  0.14740529  0.70458399  0.69556418     0.01300
H400        H  0.12184506  0.70609565  0.65548165     0.09000
H401        H  0.15714604  0.70931466  0.70707959     0.08100
N402        N  0.10351665  0.63182336  0.66730584    -0.35800
N403        N  0.10199297  0.61800148  0.68079878    -0.27900
C404        C  0.09762139  0.60092937  0.67188859    -0.03200
C405        C  0.09670937  0.60413249  0.65190140     0.05400
C406        C  0.10054017  0.62381971  0.64958457     0.03500
H407        H  0.09684027  0.58694152  0.67923588     0.08600
H408        H  0.10212180  0.63157926  0.63589620     0.07500
N409        N  0.28772411  0.83473641  0.68485011    -0.26900
N410        N  0.28549109  0.82654164  0.70218383    -0.34800
C411        C  0.26699601  0.82027244  0.70408593     0.01400
C412        C  0.25694352  0.82508624  0.68726685     0.07400
C413        C  0.27046385  0.83431489  0.67535543    -0.05700
H414        H  0.26121196  0.81306299  0.71691251     0.08100
H415        H  0.26807961  0.83977697  0.66070758     0.09300
Cu416      Cu  0.30745349  0.82574924  0.72281124     0.44200
Cu417      Cu  0.31491554  0.84475140  0.67544882     0.42000
Cu418      Cu  0.35271997  0.85158398  0.71339552     0.43900
N419        N  0.32906975  0.82994077  0.74339494    -0.34300
N420        N  0.34516618  0.84025837  0.74069585    -0.28600
C421        C  0.35548722  0.84035222  0.75752385    -0.04700
C422        C  0.34539139  0.82933499  0.77118838     0.07500
C423        C  0.32881116  0.82298659  0.76170007     0.01300
H424        H  0.36958442  0.84721695  0.75941165     0.09000
H425        H  0.31730544  0.81395694  0.76767353     0.08100
N426        N  0.35734703  0.85558732  0.68348115    -0.35800
N427        N  0.34398777  0.85211143  0.66991011    -0.27900
C428        C  0.35247378  0.85314004  0.65218987    -0.03200
C429        C  0.37198264  0.85777818  0.65463740     0.05400
C430        C  0.37455221  0.85935100  0.67464078     0.03500
H431        H  0.34506892  0.85024092  0.63852242     0.08600
H432        H  0.38819009  0.86175726  0.68225106     0.07500
N433        N  0.78542077  0.81754080  0.66362703    -0.26900
N434        N  0.78368436  0.80133604  0.67401282    -0.34800
C435        C  0.76572905  0.80055916  0.68181533     0.01400
C436        C  0.75549368  0.81695097  0.67596407     0.07400
C437        C  0.76834681  0.82744447  0.66436691    -0.05700
H438        H  0.76045643  0.78876599  0.69092737     0.08100
H439        H  0.76570241  0.84145993  0.65750844     0.09300
Cu440      Cu  0.80500555  0.78008293  0.67626109     0.44200
Cu441      Cu  0.81179302  0.82549998  0.65063993     0.42000
Cu442      Cu  0.85052983  0.78763704  0.65291176     0.43900
N443        N  0.82482390  0.75779345  0.67155469    -0.34300
N444        N  0.84140201  0.76008322  0.66195422    -0.28600
C445        C  0.84996224  0.74241340  0.65964317    -0.04700
C446        C  0.83814194  0.72849588  0.66839755     0.07500
C447        C  0.82242703  0.73880896  0.67584257     0.01300
H448        H  0.86374574  0.73992088  0.65229066     0.09000
H449        H  0.80985412  0.73289295  0.68336387     0.08100
N450        N  0.85517359  0.81706115  0.64658987    -0.35800
N451        N  0.84126302  0.83044381  0.64465884    -0.27900
C452        C  0.84964130  0.84793266  0.64122512    -0.03200
C453        C  0.86970145  0.84545665  0.64137552     0.05400
C454        C  0.87267932  0.82579367  0.64492308     0.03500
H455        H  0.84177071  0.86164503  0.64020179     0.08600
H456        H  0.88658044  0.81845208  0.64677072     0.07500
N457        N  0.63909161  0.82064870  0.82267773    -0.26900
N458        N  0.64918645  0.80421263  0.82139507    -0.34800
C459        C  0.65560534  0.80190434  0.80298556     0.01400
C460        C  0.64891265  0.81747292  0.79200190     0.07400
C461        C  0.63842710  0.82912096  0.80489128    -0.05700
H462        H  0.66388239  0.78941657  0.79781246     0.08100
H463        H  0.63109207  0.84277962  0.80165318     0.09300
Cu464      Cu  0.65096816  0.78441801  0.84404111     0.44200
Cu465      Cu  0.62753183  0.82985819  0.84924224     0.42000
Cu466      Cu  0.62232588  0.79213977  0.88788237     0.43900
N467        N  0.64513546  0.76284528  0.86426313    -0.34300
N468        N  0.63397054  0.76490475  0.87992006    -0.28600
C469        C  0.63239376  0.74730912  0.88881453    -0.04700
C470        C  0.64319005  0.73375203  0.87815454     0.07500
C471        C  0.65099613  0.74419207  0.86278010     0.01300
H472        H  0.62423945  0.74464984  0.90209780     0.09000
H473        H  0.66007011  0.73859840  0.85107383     0.08100
N474        N  0.61655191  0.82202489  0.89170478    -0.35800
N475        N  0.61938555  0.83543861  0.87801901    -0.27900
C476        C  0.61687341  0.85330253  0.88589598    -0.03200
C477        C  0.61184448  0.85112399  0.90531843     0.05400
C478        C  0.61165962  0.83113211  0.90853270     0.03500
H479        H  0.61889211  0.86691679  0.87810150     0.08600
H480        H  0.60929184  0.82380442  0.92234254     0.07500
N481        N  0.83592122  0.61223603  0.80431843    -0.26900
N482        N  0.81801616  0.61855009  0.80068490    -0.34800
C483        C  0.81640555  0.62260125  0.78155688     0.01400
C484        C  0.83402360  0.61837873  0.77261790     0.07400
C485        C  0.84611448  0.61175867  0.78743611    -0.05700
H486        H  0.80332355  0.62821084  0.77465398     0.08100
H487        H  0.86134433  0.60766100  0.78619292     0.09300
Cu488      Cu  0.79619952  0.62083901  0.82161066     0.44200
Cu489      Cu  0.84547324  0.60636429  0.83252340     0.42000
Cu490      Cu  0.80680332  0.60125170  0.86921493     0.43900
N491        N  0.77550915  0.61842851  0.84362564    -0.34300
N492        N  0.77902148  0.61001257  0.86066655    -0.28600
C493        C  0.76254205  0.61025070  0.87143320    -0.04700
C494        C  0.74811224  0.61952655  0.86071654     0.07500
C495        C  0.75683695  0.62457669  0.84321247     0.01300
H496        H  0.76141315  0.60491804  0.88627798     0.09000
H497        H  0.75012654  0.63218172  0.83107175     0.08100
N498        N  0.83649460  0.60040009  0.87545311    -0.35800
N499        N  0.85041041  0.60334400  0.86234133    -0.27900
C500        C  0.86773297  0.60441850  0.87156526    -0.03200
C501        C  0.86457656  0.60171310  0.89133710     0.05400
C502        C  0.84467196  0.59908574  0.89329415     0.03500
H503        H  0.88158785  0.60694174  0.86438879     0.08600
H504        H  0.83662458  0.59717431  0.90677563     0.07500
N505        N  0.85125340  0.62036729  0.72210107    -0.26900
N506        N  0.83830595  0.63472049  0.72240416    -0.34800
C507        C  0.83033298  0.63598487  0.74026606     0.01400
C508        C  0.83881137  0.62191287  0.75196959     0.07400
C509        C  0.85212948  0.61224455  0.74006322    -0.05700
H510        H  0.81956285  0.64678228  0.74456776     0.08100
H511        H  0.86138363  0.60001617  0.74401623     0.09300
Cu512      Cu  0.83410196  0.65377045  0.69950545     0.44200
Cu513      Cu  0.86532243  0.61277575  0.69619664     0.42000
Cu514      Cu  0.86540990  0.65079317  0.65763170     0.43900
N515        N  0.83905830  0.67696701  0.68101445    -0.34300
N516        N  0.85163536  0.67669499  0.66634704    -0.28600
C517        C  0.85336831  0.69505080  0.65926717    -0.04700
C518        C  0.84116137  0.70722670  0.67003465     0.07500
C519        C  0.83231347  0.69522149  0.68357450     0.01300
H520        H  0.86281764  0.69921479  0.64729898     0.09000
H521        H  0.82234477  0.69957011  0.69507923     0.08100
N522        N  0.87275017  0.62141038  0.65311266    -0.35800
N523        N  0.87202226  0.60780418  0.66688639    -0.27900
C524        C  0.87462132  0.59013048  0.65858820    -0.03200
C525        C  0.87748109  0.59267333  0.63877745     0.05400
C526        C  0.87630311  0.61267076  0.63577441     0.03500
H527        H  0.87392245  0.57636745  0.66635678     0.08600
H528        H  0.87671129  0.62018229  0.62186415     0.07500
N529        N  0.69933409  0.62380645  0.88168199    -0.26900
N530        N  0.70005106  0.63980667  0.87092319    -0.34800
C531        C  0.71731925  0.64054053  0.86160266     0.01400
C532        C  0.72813759  0.62433447  0.86702428     0.07400
C533        C  0.71636090  0.61404196  0.87985197    -0.05700
H534        H  0.72190809  0.65233734  0.85213101     0.08100
H535        H  0.71977171  0.60035534  0.88703167     0.09300
Cu536      Cu  0.67826899  0.66073908  0.87169007     0.44200
Cu537      Cu  0.67418157  0.61637065  0.89683409     0.42000
Cu538      Cu  0.63725238  0.65526819  0.90485385     0.43900
N539        N  0.65940161  0.68314360  0.87921527    -0.34300
N540        N  0.64500391  0.68195600  0.89206214    -0.28600
C541        C  0.63681810  0.69988865  0.89407369    -0.04700
C542        C  0.64658269  0.71273839  0.88177319     0.07500
C543        C  0.66070891  0.70154471  0.87265485     0.01300
H544        H  0.62454028  0.70323042  0.90348097     0.09000
H545        H  0.67145574  0.70644799  0.86215778     0.08100
N546        N  0.63247845  0.62537762  0.90951745    -0.35800
N547        N  0.64559379  0.61157203  0.90577358    -0.27900
C548        C  0.63697409  0.59395862  0.90696329    -0.03200
C549        C  0.61763119  0.59668349  0.91203169     0.05400
C550        C  0.61527401  0.61674356  0.91368434     0.03500
H551        H  0.64414189  0.58019471  0.90374490     0.08600
H552        H  0.60173600  0.62452428  0.91631198     0.07500
N553        N  0.70504631  0.83313453  0.68260217    -0.26900
N554        N  0.70775082  0.82234224  0.69840479    -0.34800
C555        C  0.72603683  0.81525547  0.69838648     0.01400
C556        C  0.73546352  0.82202130  0.68189941     0.07400
C557        C  0.72178841  0.83339302  0.67217579    -0.05700
H558        H  0.73204399  0.80590211  0.70964497     0.08100
H559        H  0.72362327  0.84066414  0.65825577     0.09300
Cu560      Cu  0.68705369  0.81810344  0.71993725     0.44200
Cu561      Cu  0.67781559  0.84475238  0.67548365     0.42000
Cu562      Cu  0.63920012  0.83649701  0.71227484     0.43900
N563        N  0.66660108  0.81998286  0.74204131    -0.34300
N564        N  0.64914966  0.82793825  0.73970935    -0.28600
C565        C  0.64009736  0.82870183  0.75721783    -0.04700
C566        C  0.65245512  0.82053026  0.77103634     0.07500
C567        C  0.66903310  0.81507790  0.76088398     0.01300
H568        H  0.62552112  0.83437755  0.75962307     0.09000
H569        H  0.68211746  0.80846324  0.76683664     0.08100
N570        N  0.63416132  0.84320803  0.68301430    -0.35800
N571        N  0.64798055  0.84757615  0.67018239    -0.27900
C572        C  0.63960236  0.85116576  0.65274053    -0.03200
C573        C  0.61968443  0.84850188  0.65460578     0.05400
C574        C  0.61673661  0.84336627  0.67390050     0.03500
H575        H  0.64753638  0.85428804  0.63942266     0.08600
H576        H  0.60296009  0.83982395  0.68078638     0.07500
N577        N  0.18840623  0.62439210  0.18092852    -0.26900
N578        N  0.18980915  0.63284512  0.19825945    -0.34800
C579        C  0.20854750  0.63768136  0.20152884     0.01400
C580        C  0.21956259  0.63170190  0.18563956     0.07400
C581        C  0.20635442  0.62325347  0.17284930    -0.05700
H582        H  0.21379133  0.64490069  0.21459169     0.08100
H583        H  0.20943672  0.61738447  0.15847352     0.09300
Cu584      Cu  0.16634341  0.63609700  0.21720592     0.44200
Cu585      Cu  0.16159637  0.61630336  0.16912487     0.42000
Cu586      Cu  0.12187880  0.61056673  0.20449178     0.43900
N587        N  0.14301245  0.63240275  0.23620434    -0.34300
N588        N  0.12736713  0.62179910  0.23222584    -0.28600
C589        C  0.11575698  0.62134647  0.24816176    -0.04700
C590        C  0.12446985  0.63243782  0.26264803     0.07500
C591        C  0.14161482  0.63929140  0.25455069     0.01300
H592        H  0.10171180  0.61416027  0.24887124     0.09000
H593        H  0.15240469  0.64846772  0.26156020     0.08100
N594        N  0.11864501  0.60716885  0.17443139    -0.35800
N595        N  0.13271193  0.61051931  0.16157706    -0.27900
C596        C  0.12509130  0.60989548  0.14343848    -0.03200
C597        C  0.10543924  0.60553473  0.14497747     0.05400
C598        C  0.10185441  0.60380672  0.16477238     0.03500
H599        H  0.13323470  0.61251570  0.13013805     0.08600
H600        H  0.08785707  0.60134967  0.17169187     0.07500
N601        N  0.20369750  0.82479123  0.39148291    -0.26900
N602        N  0.20746409  0.80605563  0.38825277    -0.34800
C603        C  0.22675942  0.80361929  0.38564077     0.01400
C604        C  0.23577531  0.82153673  0.38764398     0.07400
C605        C  0.22076042  0.83469439  0.39141958    -0.05700
H606        H  0.23363800  0.78989186  0.38170672     0.08100
H607        H  0.22198907  0.85043873  0.39248510     0.09300
Cu608      Cu  0.18660338  0.78443815  0.38499962     0.44200
Cu609      Cu  0.17515886  0.83609890  0.39206959     0.42000
Cu610      Cu  0.13957914  0.80160114  0.37184288     0.43900
N611        N  0.16411142  0.76573700  0.37752303    -0.34300
N612        N  0.14704052  0.77225636  0.37128427    -0.28600
C613        C  0.13586615  0.75695416  0.36612847    -0.04700
C614        C  0.14632793  0.74000990  0.36968803     0.07500
C615        C  0.16416056  0.74605539  0.37693504     0.01300
H616        H  0.12110194  0.75806868  0.36058976     0.09000
H617        H  0.17643682  0.73689162  0.38092687     0.08100
N618        N  0.13339530  0.83052920  0.37841617    -0.35800
N619        N  0.14569958  0.84288275  0.38678794    -0.27900
C620        C  0.13627475  0.85997651  0.38995529    -0.03200
C621        C  0.11734558  0.85827307  0.38294859     0.05400
C622        C  0.11608276  0.83944411  0.37575641     0.03500
H623        H  0.14284559  0.87283535  0.39640247     0.08600
H624        H  0.10340033  0.83257326  0.36931014     0.07500
N625        N  0.34845900  0.82658933  0.24144438    -0.26900
N626        N  0.33723253  0.81095534  0.24302242    -0.34800
C627        C  0.33193590  0.80856788  0.26174135     0.01400
C628        C  0.34027745  0.82327171  0.27270640     0.07400
C629        C  0.35073312  0.83450015  0.25942055    -0.05700
H630        H  0.32294009  0.79669935  0.26702005     0.08100
H631        H  0.35907785  0.84755758  0.26253294     0.09300
Cu632      Cu  0.33080822  0.79201208  0.22049126     0.44200
Cu633      Cu  0.35905058  0.83601997  0.21427472     0.42000
Cu634      Cu  0.35292363  0.79910825  0.17469528     0.43900
N635        N  0.33161660  0.77038993  0.19950466    -0.34300
N636        N  0.34117824  0.77218318  0.18283841    -0.28600
C637        C  0.34094035  0.75478070  0.17345181    -0.04700
C638        C  0.33042716  0.74166022  0.18478942     0.07500
C639        C  0.32469984  0.75211675  0.20109535     0.01300
H640        H  0.34763905  0.75197461  0.15939086     0.09000
H641        H  0.31667740  0.74664837  0.21357240     0.08100
N642        N  0.36013894  0.82846531  0.17037909    -0.35800
N643        N  0.36321936  0.84153173  0.18438451    -0.27900
C644        C  0.36686750  0.85903142  0.17601911    -0.03200
C645        C  0.36562248  0.85691651  0.15590550     0.05400
C646        C  0.36125542  0.83743065  0.15290582     0.03500
H647        H  0.36900450  0.87253426  0.18400163     0.12200
H648        H  0.35861391  0.83034308  0.13900592     0.07500
N649        N  0.27134302  0.63346201  0.17250188    -0.26900
N650        N  0.26953418  0.64938433  0.18337069    -0.34800
C651        C  0.25108746  0.65078721  0.18992997     0.01400
C652        C  0.24057450  0.63521445  0.18261443     0.07400
C653        C  0.25381783  0.62448904  0.17155574    -0.05700
H654        H  0.24554078  0.66274598  0.19872566     0.08100
H655        H  0.25097485  0.61111041  0.16359100     0.09300
Cu656      Cu  0.29118424  0.67016346  0.18668948     0.44200
Cu657      Cu  0.29819171  0.62483843  0.16059942     0.42000
Cu658      Cu  0.33731966  0.66172208  0.16440514     0.43900
N659        N  0.31153907  0.69208922  0.18258836    -0.34300
N660        N  0.32823646  0.68949657  0.17322682    -0.28600
C661        C  0.33744962  0.70688646  0.17183067    -0.04700
C662        C  0.32600431  0.72091669  0.18103534     0.07500
C663        C  0.30977992  0.71097730  0.18771785     0.01300
H664        H  0.35167851  0.70900939  0.16528590     0.09000
H665        H  0.29749339  0.71706121  0.19564148     0.08100
N666        N  0.34195870  0.63208119  0.15866655    -0.35800
N667        N  0.32789790  0.61904582  0.15606190    -0.27900
C668        C  0.33611718  0.60142165  0.15260879    -0.03200
C669        C  0.35621955  0.60340014  0.15351920     0.05400
C670        C  0.35939116  0.62296117  0.15749111     0.03500
H671        H  0.32805238  0.58796647  0.15066260     0.08600
H672        H  0.37336140  0.63004790  0.15951102     0.07500
N673        N  0.28655213  0.83737239  0.38271203    -0.26900
N674        N  0.28504079  0.82480148  0.36806742    -0.34800
C675        C  0.26694054  0.81727385  0.36789749     0.01400
C676        C  0.25633544  0.82573135  0.38288059     0.07400
C677        C  0.26915856  0.83848308  0.39199563    -0.05700
H678        H  0.26167371  0.80687557  0.35719857     0.08100
H679        H  0.26620771  0.84753012  0.40465321     0.09300
Cu680      Cu  0.30644323  0.82026355  0.34706477     0.44200
Cu681      Cu  0.31297734  0.85096297  0.38967269     0.42000
Cu682      Cu  0.35037083  0.84715310  0.35113354     0.43900
N683        N  0.32544766  0.82419755  0.32378947    -0.34300
N684        N  0.34118014  0.83529763  0.32478116    -0.28600
C685        C  0.34908281  0.83685313  0.30677447    -0.04700
C686        C  0.33778039  0.82601970  0.29394066     0.07500
C687        C  0.32301440  0.81815065  0.30526848     0.01300
H688        H  0.36206245  0.84516253  0.30332361     0.09000
H689        H  0.31094966  0.80924972  0.30029114     0.08100
N690        N  0.35609320  0.85427361  0.38008270    -0.35800
N691        N  0.34269473  0.85659410  0.39388042    -0.27900
C692        C  0.35177898  0.86007736  0.41102976    -0.03200
C693        C  0.37174698  0.85950694  0.40786757     0.05400
C694        C  0.37392981  0.85574830  0.38814740     0.03500
H695        H  0.34444003  0.86148282  0.42497780     0.08600
H696        H  0.38750979  0.85361372  0.38031460     0.07500
N697        N  0.11095663  0.63495329  0.31394526    -0.26900
N698        N  0.11353729  0.65365199  0.30980089    -0.34800
C699        C  0.11741132  0.65556573  0.29066895     0.01400
C700        C  0.11692055  0.63727411  0.28216769     0.07400
C701        C  0.11274933  0.62446737  0.29730185    -0.05700
H702        H  0.12172793  0.66911077  0.28374294     0.08100
H703        H  0.11299681  0.60865105  0.29662176     0.09300
Cu704      Cu  0.11627157  0.67537019  0.33051168     0.44200
Cu705      Cu  0.11007072  0.62490682  0.34274007     0.42000
Cu706      Cu  0.13368508  0.65897978  0.37702148     0.43900
N707        N  0.12734648  0.69406079  0.35133770    -0.34300
N708        N  0.13540436  0.68795314  0.36780071    -0.28600
C709        C  0.14350929  0.70337910  0.37696726    -0.04700
C710        C  0.14000796  0.71990183  0.36580869     0.07500
C711        C  0.12967260  0.71349937  0.34974044     0.01300
H712        H  0.15111654  0.70266765  0.39081027     0.09000
H713        H  0.12491312  0.72217325  0.33739553     0.08100
N714        N  0.12498494  0.63067294  0.38414182    -0.35800
N715        N  0.11526017  0.61891561  0.37222496    -0.27900
C716        C  0.11043378  0.60252880  0.38201463    -0.03200
C717        C  0.11773011  0.60392044  0.40083339     0.05400
C718        C  0.12694488  0.62186977  0.40163974     0.03500
H719        H  0.10258072  0.59031732  0.37575631     0.08600
H720        H  0.13412548  0.62829008  0.41418211     0.07500
N721        N  0.63482846  0.81720892  0.23289245    -0.26900
N722        N  0.64273918  0.79964738  0.23452600    -0.34800
C723        C  0.64820465  0.79662545  0.25311596     0.01400
C724        C  0.64324051  0.81294832  0.26392451     0.07400
C725        C  0.63470290  0.82578324  0.25070313    -0.05700
H726        H  0.65501825  0.78335581  0.25843591     0.08100
H727        H  0.62932721  0.84038466  0.25369309     0.09300
Cu728      Cu  0.64424785  0.78001384  0.21175508     0.44200
Cu729      Cu  0.62571775  0.82760994  0.20564186     0.42000
Cu730      Cu  0.62014396  0.78976563  0.16630117     0.43900
N731        N  0.64016348  0.75917599  0.19043750    -0.34300
N732        N  0.63043964  0.76193455  0.17398016    -0.28600
C733        C  0.62932712  0.74463898  0.16440212    -0.04700
C734        C  0.63899305  0.73058831  0.17547377     0.07500
C735        C  0.64566030  0.74041197  0.19175651     0.01300
H736        H  0.62224827  0.74250587  0.15042604     0.09000
H737        H  0.65355118  0.73427608  0.20401471     0.08100
N738        N  0.61523140  0.81985261  0.16284026    -0.35800
N739        N  0.61818789  0.83328352  0.17653642    -0.27900
C740        C  0.61560041  0.85114938  0.16863211    -0.03200
C741        C  0.61040555  0.84892989  0.14923030     0.05400
C742        C  0.61025422  0.82892027  0.14605891     0.03500
H743        H  0.61743915  0.86479269  0.17645108     0.08600
H744        H  0.60756107  0.82151288  0.13233749     0.07500
N745        N  0.78451187  0.81608297  0.38410524    -0.26900
N746        N  0.78283756  0.79844038  0.37640264    -0.34800
C747        C  0.76417835  0.79537925  0.37121693     0.01400
C748        C  0.75339652  0.81175652  0.37617678     0.07400
C749        C  0.76670546  0.82464632  0.38440355    -0.05700
H750        H  0.75884025  0.78215090  0.36437365     0.08100
H751        H  0.76381952  0.83938988  0.38942970     0.09300
Cu752      Cu  0.80590758  0.77905600  0.37425914     0.44200
Cu753      Cu  0.81187357  0.82710732  0.39183673     0.42000
Cu754      Cu  0.85203689  0.79060678  0.39684945     0.43900
N755        N  0.82837528  0.75913722  0.37753841    -0.34300
N756        N  0.84492572  0.76254764  0.38688659    -0.28600
C757        C  0.85568995  0.74592304  0.38691418    -0.04700
C758        C  0.84536697  0.73163877  0.37685843     0.07500
C759        C  0.82822904  0.74060025  0.37113692     0.01300
H760        H  0.87018940  0.74456759  0.39306076     0.09000
H761        H  0.81639182  0.73409095  0.36293787     0.08100
N762        N  0.85554296  0.82097973  0.39888565    -0.35800
N763        N  0.84135432  0.83390692  0.39601349    -0.27900
C764        C  0.84917170  0.85195732  0.39533885    -0.03200
C765        C  0.86912307  0.85043110  0.39823794     0.05400
C766        C  0.87263644  0.83061730  0.40057895     0.03500
H767        H  0.84094790  0.86521513  0.39259931     0.08600
H768        H  0.88673763  0.82361855  0.40221671     0.07500
N769        N  0.83595518  0.61309650  0.23476704    -0.26900
N770        N  0.81839660  0.61926620  0.24003636    -0.34800
C771        C  0.81880535  0.62420854  0.25907707     0.01400
C772        C  0.83739096  0.62062925  0.26621816     0.07400
C773        C  0.84790614  0.61355514  0.25042925    -0.05700
H774        H  0.80649027  0.63005597  0.26713056     0.08100
H775        H  0.86330508  0.60995448  0.25010235     0.09300
Cu776      Cu  0.79463152  0.62035696  0.22101151     0.44200
Cu777      Cu  0.84301293  0.60682436  0.20589200     0.42000
Cu778      Cu  0.80332694  0.60780668  0.17016521     0.43900
N779        N  0.77252678  0.61751396  0.20024291    -0.34300
N780        N  0.77547114  0.61178300  0.18198405    -0.28600
C781        C  0.75812640  0.61109249  0.17264132    -0.04700
C782        C  0.74367987  0.61701830  0.18555654     0.07500
C783        C  0.75335364  0.62105920  0.20284279     0.01300
H784        H  0.75631814  0.60766877  0.15730160     0.09000
H785        H  0.74694388  0.62645625  0.21627838     0.08100
N786        N  0.83291758  0.60710213  0.16271794    -0.35800
N787        N  0.84712779  0.60605688  0.17579651    -0.27900
C788        C  0.86441720  0.60572999  0.16646761    -0.03200
C789        C  0.86103152  0.60683515  0.14656990     0.05400
C790        C  0.84090372  0.60777008  0.14468897     0.03500
H791        H  0.87845842  0.60514648  0.17370172     0.08600
H792        H  0.83266719  0.60866686  0.13122181     0.07500
N793        N  0.69279397  0.61978083  0.16937036    -0.26900
N794        N  0.69414482  0.63564302  0.18032535    -0.34800
C795        C  0.71216574  0.63669378  0.18802396     0.01400
C796        C  0.72291249  0.62092404  0.18131097     0.07400
C797        C  0.71023696  0.61049605  0.16939500    -0.05700
H798        H  0.71734701  0.64857521  0.19709642     0.08100
H799        H  0.71339489  0.59710888  0.16153349     0.09300
Cu800      Cu  0.67243391  0.65666389  0.18140843     0.44200
Cu801      Cu  0.66632409  0.61225246  0.15619036     0.42000
Cu802      Cu  0.62999624  0.65205670  0.15025254     0.43900
N803        N  0.65407711  0.67965056  0.17436432    -0.34300
N804        N  0.63918583  0.67868081  0.16209324    -0.28600
C805        C  0.63151466  0.69681054  0.15999351    -0.04700
C806        C  0.64210960  0.70958140  0.17165466     0.07500
C807        C  0.65619959  0.69814548  0.18050045     0.01300
H808        H  0.61890116  0.70030899  0.15112462     0.09000
H809        H  0.66738590  0.70293721  0.19058401     0.08100
N810        N  0.62413944  0.62239277  0.14567737    -0.35800
N811        N  0.63700339  0.60816911  0.14863495    -0.27900
C812        C  0.62776365  0.59084274  0.14741906    -0.03200
C813        C  0.60828376  0.59423362  0.14318248     0.05400
C814        C  0.60651621  0.61437594  0.14205420     0.03500
H815        H  0.63463097  0.57680001  0.14998082     0.08600
H816        H  0.59315299  0.62262778  0.14006244     0.07500
N817        N  0.85934765  0.62439581  0.31484602    -0.26900
N818        N  0.84850332  0.64042020  0.31422496    -0.34800
C819        C  0.83921920  0.64138056  0.29697038     0.01400
C820        C  0.84464294  0.62537407  0.28592870     0.07400
C821        C  0.85753333  0.61489085  0.29761056    -0.05700
H822        H  0.82942741  0.65306498  0.29267893     0.08100
H823        H  0.86446825  0.60107652  0.29412021     0.09300
Cu824      Cu  0.84754678  0.66111553  0.33615296     0.44200
Cu825      Cu  0.87400269  0.61604888  0.34043595     0.42000
Cu826      Cu  0.87420493  0.65386203  0.37981177     0.43900
N827        N  0.85163825  0.68299434  0.35650080    -0.34300
N828        N  0.86239378  0.68102885  0.37240305    -0.28600
C829        C  0.86257756  0.69828513  0.38208389    -0.04700
C830        C  0.85114529  0.71149746  0.37172636     0.07500
C831        C  0.84447436  0.70124301  0.35567873     0.01300
H832        H  0.86976643  0.70077453  0.39594434     0.09000
H833        H  0.83502432  0.70663854  0.34419920     0.08100
N834        N  0.88066478  0.62424024  0.38375988    -0.35800
N835        N  0.88133895  0.61082038  0.36975328    -0.27900
C836        C  0.88458884  0.59317584  0.37800628    -0.03200
C837        C  0.88561273  0.59555485  0.39809149     0.05400
C838        C  0.88308734  0.61540706  0.40116915     0.03500
H839        H  0.88477618  0.57945728  0.37009436     0.08600
H840        H  0.88231225  0.62283510  0.41512746     0.07500
N841        N  0.70133416  0.82357614  0.37314819    -0.26900
N842        N  0.70408266  0.81395296  0.35657956    -0.34800
C843        C  0.72285732  0.80831568  0.35535640     0.01400
C844        C  0.73257708  0.81497777  0.37173676     0.07400
C845        C  0.71853671  0.82465865  0.38274678    -0.05700
H846        H  0.72909455  0.80035460  0.34316390     0.08100
H847        H  0.72056037  0.83152561  0.39685867     0.09300
Cu848      Cu  0.68287811  0.81051585  0.33525964     0.44200
Cu849      Cu  0.67369874  0.83333753  0.38188060     0.42000
Cu850      Cu  0.63522739  0.83005209  0.34440768     0.43900
N851        N  0.66203807  0.81400868  0.31358287    -0.34300
N852        N  0.64486798  0.82243057  0.31647606    -0.28600
C853        C  0.63555489  0.82398190  0.29914723    -0.04700
C854        C  0.64740953  0.81584341  0.28483788     0.07500
C855        C  0.66396849  0.80957566  0.29454168     0.01300
H856        H  0.62104134  0.82998105  0.29721862     0.09000
H857        H  0.67665858  0.80256746  0.28816481     0.08100
N858        N  0.62999695  0.83506966  0.37406957    -0.35800
N859        N  0.64387360  0.83718210  0.38739609    -0.27900
C860        C  0.63544230  0.84046041  0.40491438    -0.03200
C861        C  0.61536902  0.84003902  0.40259268     0.05400
C862        C  0.61243489  0.83653183  0.38287518     0.03500
H863        H  0.64334898  0.84232379  0.41847967     0.08600
H864        H  0.59855270  0.83520269  0.37544192     0.07500
N865        N  0.82257750  0.33867517  0.22263550    -0.26900
N866        N  0.80565640  0.32994969  0.22575956    -0.34800
C867        C  0.80470318  0.32400866  0.24444447     0.01400
C868        C  0.82173460  0.32942034  0.25376113     0.07400
C869        C  0.83278277  0.33878312  0.23954330    -0.05700
H870        H  0.79244447  0.31632660  0.25079182     0.08100
H871        H  0.84739548  0.34454725  0.24118418     0.09300
Cu872      Cu  0.78429280  0.32684300  0.20470546     0.44200
Cu873      Cu  0.83075922  0.34793505  0.19458837     0.42000
Cu874      Cu  0.79307182  0.34276289  0.15567898     0.43900
N875        N  0.76280840  0.32774568  0.18355582    -0.34300
N876        N  0.76541338  0.33452303  0.16565519    -0.28600
C877        C  0.74817535  0.33382832  0.15606086    -0.04700
C878        C  0.73429754  0.32595434  0.16856597     0.07500
C879        C  0.74414255  0.32224620  0.18577463     0.01300
H880        H  0.74606560  0.33806904  0.14097308     0.09000
H881        H  0.73815387  0.31606699  0.19903888     0.08100
N882        N  0.82274793  0.34809956  0.15060805    -0.35800
N883        N  0.83594206  0.35096160  0.16450439    -0.27900
C884        C  0.85350681  0.35375032  0.15605218    -0.03200
C885        C  0.85140858  0.35217092  0.13598144     0.05400
C886        C  0.83175074  0.34851220  0.13305903     0.03500
H887        H  0.86702792  0.35569461  0.16399645     0.08600
H888        H  0.82454265  0.34608413  0.11919535     0.07500
N889        N  0.77679036  0.12986647  0.37730119    -0.26900
N890        N  0.77327635  0.14698814  0.36907520    -0.34800
C891        C  0.75419412  0.14833515  0.36478754     0.01400
C892        C  0.74518863  0.13138378  0.37095214     0.07400
C893        C  0.75988074  0.11993745  0.37886675    -0.05700
H894        H  0.74737798  0.16075638  0.35772134     0.08100
H895        H  0.75854844  0.10521659  0.38450456     0.09300
Cu896      Cu  0.79446819  0.16799585  0.36500688     0.44200
Cu897      Cu  0.80494205  0.12098762  0.38406062     0.42000
Cu898      Cu  0.84302609  0.15910229  0.38402842     0.43900
N899        N  0.81588297  0.18913452  0.36645473    -0.34300
N900        N  0.83337618  0.18656725  0.37426568    -0.28600
C901        C  0.84310757  0.20372749  0.37348809    -0.04700
C902        C  0.83113767  0.21750382  0.36455402     0.07500
C903        C  0.81407701  0.20768809  0.36031254     0.01300
H904        H  0.85794576  0.20585757  0.37847845     0.09000
H905        H  0.80117240  0.21361692  0.35334092     0.08100
N906        N  0.84829357  0.12917683  0.38853143    -0.35800
N907        N  0.83454613  0.11559820  0.38765510    -0.27900
C908        C  0.84289495  0.09781119  0.38883972    -0.03200
C909        C  0.86281610  0.10018808  0.39086145     0.05400
C910        C  0.86575800  0.12024053  0.39073887     0.03500
H911        H  0.83501360  0.08413128  0.38805012     0.08600
H912        H  0.87964929  0.12773723  0.39124817     0.07500
N913        N  0.61508975  0.12779715  0.23701990    -0.26900
N914        N  0.62474845  0.14435486  0.23946751    -0.34800
C915        C  0.63261066  0.14459130  0.25743587     0.01400
C916        C  0.62747406  0.12751792  0.26689742     0.07400
C917        C  0.61629180  0.11717697  0.25359390    -0.05700
H918        H  0.64147317  0.15635408  0.26317992     0.08100
H919        H  0.61027740  0.10267653  0.25547186     0.09300
Cu920      Cu  0.62671757  0.16633508  0.21868840     0.44200
Cu921      Cu  0.60313189  0.11978391  0.21026716     0.42000
Cu922      Cu  0.60647330  0.15714775  0.17172983     0.43900
N923        N  0.62367557  0.18791289  0.19761349    -0.34300
N924        N  0.61509963  0.18489266  0.18057772    -0.28600
C925        C  0.61444772  0.20189641  0.17062012    -0.04700
C926        C  0.62335478  0.21616070  0.18188359     0.07500
C927        C  0.62909752  0.20676282  0.19882913     0.01300
H928        H  0.60864440  0.20356599  0.15600449     0.09000
H929        H  0.63659301  0.21317670  0.21118749     0.08100
N930        N  0.60098463  0.12765979  0.16677725    -0.35800
N931        N  0.59873735  0.11437870  0.18067407    -0.27900
C932        C  0.59577492  0.09679871  0.17229409    -0.03200
C933        C  0.59652092  0.09912097  0.15223208     0.05400
C934        C  0.59993307  0.11879283  0.14924705     0.03500
H935        H  0.59433036  0.08318857  0.18022300     0.08600
H936        H  0.60184729  0.12609514  0.13535182     0.07500
N937        N  0.62569291  0.26644667  0.16402953    -0.26900
N938        N  0.64229284  0.26511034  0.17378372    -0.34800
C939        C  0.64372936  0.24723230  0.18181145     0.01400
C940        C  0.62739378  0.23662476  0.17660462     0.07400
C941        C  0.61624376  0.24919171  0.16524775    -0.05700
H942        H  0.65610499  0.24209937  0.19022001     0.08100
H943        H  0.60225862  0.24610555  0.15857565     0.09300
Cu944      Cu  0.66322514  0.28684675  0.17355549     0.44200
Cu945      Cu  0.61734123  0.29237783  0.15033506     0.42000
Cu946      Cu  0.65620674  0.32843782  0.14133103     0.43900
N947        N  0.68490473  0.30673725  0.16678559    -0.34300
N948        N  0.68306492  0.32120637  0.15407783    -0.28600
C949        C  0.70050399  0.33024471  0.15227957    -0.04700
C950        C  0.71371161  0.32108693  0.16465345     0.07500
C951        C  0.70327364  0.30635716  0.17361287     0.01300
H952        H  0.70320522  0.34285266  0.14312909     0.09000
H953        H  0.70871140  0.29587964  0.18415201     0.08100
N954        N  0.62651376  0.33350737  0.13592585    -0.35800
N955        N  0.61259513  0.32074257  0.14010748    -0.27900
C956        C  0.59510571  0.32959526  0.13832905    -0.03200
C957        C  0.59801462  0.34868791  0.13239422     0.05400
C958        C  0.61810227  0.35067802  0.13092779     0.03500
H959        H  0.58128660  0.32287047  0.14198122     0.08600
H960        H  0.62603410  0.36405509  0.12811522     0.07500
N961        N  0.63535382  0.11019405  0.31677361    -0.26900
N962        N  0.65158474  0.12007687  0.31343790    -0.34800
C963        C  0.65126982  0.12722745  0.29520395     0.01400
C964        C  0.63411338  0.12146477  0.28641291     0.07400
C965        C  0.62431842  0.11056531  0.30041525    -0.05700
H966        H  0.66265368  0.13618191  0.28889310     0.08100
H967        H  0.60987497  0.10430193  0.29915787     0.09300
Cu968      Cu  0.67359662  0.12390344  0.33350228     0.44200
Cu969      Cu  0.62863020  0.09951620  0.34458538     0.42000
Cu970      Cu  0.66730773  0.10691801  0.38195211     0.43900
N971        N  0.69586891  0.12371510  0.35363318    -0.34300
N972        N  0.69417589  0.11635564  0.37139554    -0.28600
C973        C  0.71167155  0.11740658  0.38039652    -0.04700
C974        C  0.72470911  0.12616569  0.36763628     0.07500
C975        C  0.71419246  0.13003052  0.35090709     0.01300
H976        H  0.71450180  0.11278105  0.39525238     0.09000
H977        H  0.71951588  0.13673170  0.33761199     0.08100
N978        N  0.63816385  0.10069999  0.38803381    -0.35800
N979        N  0.62455419  0.09696709  0.37477601    -0.27900
C980        C  0.60739834  0.09403576  0.38399305    -0.03200
C981        C  0.61027110  0.09647651  0.40386017     0.05400
C982        C  0.62989848  0.10070377  0.40588954     0.03500
H983        H  0.59362600  0.09147913  0.37668091     0.08600
H984        H  0.63757984  0.10386889  0.41934324     0.07500
N985        N  0.84757416  0.26801761  0.35863699    -0.26900
N986        N  0.83405940  0.26687480  0.34486034    -0.34800
C987        C  0.82624959  0.24886689  0.34507688     0.01400
C988        C  0.83541266  0.23800827  0.35946246     0.07400
C989        C  0.84890167  0.25057767  0.36778834    -0.05700
H990        H  0.81500127  0.24390352  0.33514774     0.08100
H991        H  0.85864032  0.24743153  0.37984180     0.09300
Cu992      Cu  0.82785854  0.28895025  0.32485857     0.44200
Cu993      Cu  0.86223014  0.29390159  0.36501639     0.42000
Cu994      Cu  0.85400384  0.33341892  0.32962863     0.43900
N995        N  0.82884341  0.30986672  0.30280880    -0.34300
N996        N  0.83970173  0.32578066  0.30395307    -0.28600
C997        C  0.83909473  0.33524318  0.28666197    -0.04700
C998        C  0.82700553  0.32487410  0.27417536     0.07500
C999        C  0.82069182  0.30895784  0.28494556     0.01300
H1000       H  0.84665829  0.34875852  0.28351591     0.09000
H1001       H  0.81137557  0.29721302  0.27993737     0.08100
N1002       N  0.86449788  0.33749437  0.35786154    -0.35800
N1003       N  0.86848645  0.32322357  0.37032695    -0.27900
C1004       C  0.87395848  0.33113561  0.38752202    -0.03200
C1005       C  0.87295343  0.35127229  0.38588140     0.05400
C1006       C  0.86689374  0.35478565  0.36693342     0.03500
H1007       H  0.87699097  0.32285046  0.40065042     0.08600
H1008       H  0.86380703  0.36886677  0.36039504     0.07500
N1009       N  0.12498301  0.32962050  0.23088767    -0.26900
N1010       N  0.14253580  0.33437981  0.23735342    -0.34800
C1011       C  0.14268099  0.33365030  0.25696867     0.01400
C1012       C  0.12443634  0.32786495  0.26321472     0.07400
C1013       C  0.11352792  0.32530008  0.24635040    -0.05700
H1014       H  0.15533100  0.33653674  0.26599181     0.08100
H1015       H  0.09839174  0.32088592  0.24540363     0.09300
Cu1016     Cu  0.16601116  0.34000452  0.21929833     0.44200
Cu1017     Cu  0.11799137  0.33053424  0.20119626     0.42000
Cu1018     Cu  0.15707473  0.34917440  0.16869169     0.43900
N1019       N  0.18807008  0.34244080  0.19887196    -0.34300
N1020       N  0.18506631  0.34671198  0.18027606    -0.28600
C1021       C  0.20225964  0.34580228  0.17068434    -0.04700
C1022       C  0.21658278  0.34033054  0.18390487     0.07500
C1023       C  0.20705803  0.33828855  0.20157466     0.01300
H1024       H  0.20392428  0.34739595  0.15503554     0.09000
H1025       H  0.21329955  0.33330861  0.21522822     0.08100
N1026       N  0.12824518  0.34453520  0.16021609    -0.35800
N1027       N  0.11459865  0.33669980  0.17148494    -0.27900
C1028       C  0.09816465  0.33448224  0.16090576    -0.03200
C1029       C  0.10152312  0.34151106  0.14226489     0.05400
C1030       C  0.12069988  0.34781250  0.14233853     0.03500
H1031       H  0.08460784  0.32863377  0.16652671     0.08600
H1032       H  0.12871153  0.35399682  0.13019656     0.07500
N1033       N  0.34326351  0.13685937  0.23897431    -0.26900
N1034       N  0.33307093  0.15300275  0.24218855    -0.34800
C1035       C  0.32828843  0.15407585  0.26116346     0.01400
C1036       C  0.33589985  0.13794818  0.27059747     0.07400
C1037       C  0.34543411  0.12727980  0.25613166    -0.05700
H1038       H  0.31975813  0.16577573  0.26760505     0.08100
H1039       H  0.35262925  0.11326495  0.25779304     0.09300
Cu1040     Cu  0.32605316  0.17341360  0.22113358     0.44200
Cu1041     Cu  0.35123135  0.12853440  0.21059999     0.42000
Cu1042     Cu  0.33919524  0.16477509  0.17180999     0.43900
N1043       N  0.32440039  0.19485508  0.20001889    -0.34300
N1044       N  0.33054179  0.19226080  0.18188718    -0.28600
C1045       C  0.32954050  0.20951192  0.17237778    -0.04700
C1046       C  0.32206291  0.22340273  0.18516367     0.07500
C1047       C  0.31889042  0.21357466  0.20248144     0.01300
H1048       H  0.33367205  0.21171722  0.15727096     0.09000
H1049       H  0.31361064  0.21971986  0.21608753     0.08100
N1050       N  0.34581733  0.13536427  0.16683540    -0.35800
N1051       N  0.35131775  0.12277958  0.18052197    -0.27900
C1052       C  0.35482059  0.10530281  0.17206592    -0.03200
C1053       C  0.35089097  0.10682028  0.15230634     0.05400
C1054       C  0.34516668  0.12602425  0.14948448     0.03500
H1055       H  0.35914071  0.09222806  0.17986997     0.08600
H1056       H  0.34098995  0.13277136  0.13580168     0.07500
N1057       N  0.19936810  0.13468409  0.38982495    -0.26900
N1058       N  0.20311557  0.15365685  0.38939015    -0.34800
C1059       C  0.22253713  0.15626189  0.38784281     0.01400
C1060       C  0.23151610  0.13810647  0.38771823     0.07400
C1061       C  0.21640145  0.12474220  0.38902714    -0.05700
H1062       H  0.22953094  0.17030465  0.38589139     0.08100
H1063       H  0.21758754  0.10900449  0.38772327     0.09300
Cu1064     Cu  0.18159445  0.17514077  0.38791788     0.44200
Cu1065     Cu  0.17113765  0.12347294  0.38725050     0.42000
Cu1066     Cu  0.13562957  0.15836906  0.36813001     0.43900
N1067       N  0.15880862  0.19385923  0.38047172    -0.34300
N1068       N  0.14265094  0.18783767  0.37176169    -0.28600
C1069       C  0.13191134  0.20357383  0.36667811    -0.04700
C1070       C  0.14161402  0.22023978  0.37280142     0.07500
C1071       C  0.15855848  0.21353638  0.38157164     0.01300
H1072       H  0.11805455  0.20293081  0.35910582     0.09000
H1073       H  0.17029550  0.22234003  0.38743409     0.08100
N1074       N  0.12990650  0.12863652  0.37186134    -0.35800
N1075       N  0.14238363  0.11627736  0.38003270    -0.27900
C1076       C  0.13342290  0.09895450  0.38266638    -0.03200
C1077       C  0.11451872  0.10037563  0.37557497     0.05400
C1078       C  0.11283461  0.11934898  0.36872940     0.03500
H1079       H  0.14013842  0.08628726  0.38938076     0.08600
H1080       H  0.09983647  0.12620786  0.36286673     0.07500
N1081       N  0.33579231  0.12220788  0.32172562    -0.26900
N1082       N  0.31967138  0.13285923  0.32096316    -0.34800
C1083       C  0.31742490  0.13983290  0.30276771     0.01400
C1084       C  0.33273171  0.13312989  0.29136642     0.07400
C1085       C  0.34414149  0.12190622  0.30382256    -0.05700
H1086       H  0.30531516  0.14889666  0.29809976     0.08100
H1087       H  0.35764992  0.11445103  0.30026684     0.09300
Cu1088     Cu  0.30051089  0.13625819  0.34423527     0.44200
Cu1089     Cu  0.34507833  0.10956282  0.34779543     0.42000
Cu1090     Cu  0.30734456  0.10499876  0.38609728     0.43900
N1091       N  0.27991193  0.13323689  0.36627160    -0.34300
N1092       N  0.28153338  0.12055718  0.38078296    -0.28600
C1093       C  0.26462427  0.12041782  0.39094749    -0.04700
C1094       C  0.25202582  0.13394840  0.38260414     0.07500
C1095       C  0.26222742  0.14181834  0.36707602     0.01300
H1096       H  0.26174035  0.11122677  0.40348333     0.09000
H1097       H  0.25681981  0.15228803  0.35651499     0.08100
N1098       N  0.33666104  0.09704087  0.38964338    -0.35800
N1099       N  0.35029015  0.09983706  0.37617666    -0.27900
C1100       C  0.36796185  0.09688996  0.38427038    -0.03200
C1101       C  0.36540830  0.09157237  0.40357400     0.05400
C1102       C  0.34539458  0.09173528  0.40650424     0.03500
H1103       H  0.38171545  0.09933544  0.37687212     0.08600
H1104       H  0.33787067  0.08991528  0.42029677     0.07500
N1105       N  0.13416736  0.27311799  0.37095102    -0.26900
N1106       N  0.12557230  0.26766736  0.35448758    -0.34800
C1107       C  0.12624227  0.24802515  0.35308073     0.01400
C1108       C  0.13600020  0.24076251  0.36921692     0.07400
C1109       C  0.14087220  0.25705450  0.38021582    -0.05700
H1110       H  0.12100859  0.23972990  0.34066904     0.08100
H1111       H  0.14886971  0.25723853  0.39385420     0.09300
Cu1112     Cu  0.11626525  0.28700322  0.33290505     0.44200
Cu1113     Cu  0.13649789  0.30218917  0.38015529     0.42000
Cu1114     Cu  0.12323424  0.33797984  0.34397066     0.43900
N1115       N  0.11537721  0.30886049  0.31177215    -0.34300
N1116       N  0.11905793  0.32740726  0.31583069    -0.28600
C1117       C  0.12141036  0.33728350  0.29900812    -0.04700
C1118       C  0.11864384  0.32448074  0.28360390     0.07500
C1119       C  0.11491237  0.30655799  0.29220428     0.01300
H1120       H  0.12601243  0.35238721  0.29806495     0.09000
H1121       H  0.11394015  0.29257311  0.28484161     0.08100
N1122       N  0.12815699  0.34495913  0.37308735    -0.35800
N1123       N  0.13395317  0.33204534  0.38626769    -0.27900
C1124       C  0.13603167  0.34120613  0.40360984    -0.03200
C1125       C  0.13099769  0.36071418  0.40121988     0.05400
C1126       C  0.12599879  0.36253543  0.38173319     0.03500
H1127       H  0.14006788  0.33403572  0.41711711     0.08600
H1128       H  0.12107272  0.37565917  0.37437800     0.07500
N1129       N  0.32077670  0.27478353  0.17105853    -0.26900
N1130       N  0.30517182  0.27384232  0.18239614    -0.34800
C1131       C  0.30338625  0.25550161  0.18926328     0.01400
C1132       C  0.31837423  0.24428995  0.18153860     0.07400
C1133       C  0.32912424  0.25693882  0.17002501    -0.05700
H1134       H  0.29167192  0.25054025  0.19864177     0.08100
H1135       H  0.34219799  0.25352176  0.16179009     0.09300
Cu1136     Cu  0.28573524  0.29698175  0.18554744     0.44200
Cu1137     Cu  0.32979615  0.30077796  0.15834975     0.42000
Cu1138     Cu  0.29211559  0.33760393  0.15153984     0.43900
N1139       N  0.26486485  0.31842799  0.18032557    -0.34300
N1140       N  0.26637980  0.33213752  0.16675940    -0.28600
C1141       C  0.24940690  0.34214135  0.16582537    -0.04700
C1142       C  0.23683572  0.33452624  0.17969058     0.07500
C1143       C  0.24711231  0.31960255  0.18863140     0.01300
H1144       H  0.24657585  0.35425987  0.15605586     0.09000
H1145       H  0.24182750  0.30982795  0.19987590     0.08100
N1146       N  0.32155016  0.34237602  0.14571104    -0.35800
N1147       N  0.33530244  0.32925741  0.14943368    -0.27900
C1148       C  0.35287486  0.33793007  0.14831193    -0.03200
C1149       C  0.35010450  0.35729444  0.14326048     0.05400
C1150       C  0.33009044  0.35963563  0.14161235     0.03500
H1151       H  0.36660597  0.33086359  0.15177551     0.08600
H1152       H  0.32228286  0.37324003  0.13939443     0.07500
O1153       O  0.49853089  0.45391251  0.15535116    -0.72600
O1154       O  0.46007183  0.49843164  0.16090463    -0.73600
O1155       O  0.45744713  0.45658747  0.15926490    -0.62200
O1156       O  0.50156628  0.49539578  0.15701904    -0.70600
O1157       O  0.49741133  0.49853359  0.12498691    -0.70200
O1158       O  0.45520252  0.45740217  0.12689029    -0.61400
O1159       O  0.45588973  0.49867204  0.12872067    -0.73900
O1160       O  0.49717002  0.45663345  0.12304648    -0.72700
Cu1161     Cu  0.47950544  0.47605840  0.15925855     1.04600
Cu1162     Cu  0.47635097  0.47784156  0.12476890     1.04300
C1163       C  0.50407765  0.44841518  0.13836261     0.93600
C1164       C  0.45163692  0.50527594  0.14567634     0.92700
C1165       C  0.44946302  0.45080247  0.14339801     0.84900
C1166       C  0.50628097  0.50324220  0.14074585     0.91200
O1167       O  0.13119292  0.46228151  0.50822429    -0.72600
O1168       O  0.12291989  0.50425750  0.54898068    -0.73600
O1169       O  0.12630422  0.46257700  0.54973258    -0.62200
O1170       O  0.12791445  0.50408250  0.50802452    -0.70600
O1171       O  0.09565540  0.50260062  0.50507888    -0.70200
O1172       O  0.09460843  0.45843122  0.54435805    -0.61400
O1173       O  0.09082608  0.50019261  0.54673062    -0.73900
O1174       O  0.09919429  0.46140604  0.50303315    -0.72700
Cu1175     Cu  0.12820156  0.48335372  0.52889774     1.04600
Cu1176     Cu  0.09393105  0.48056602  0.52472205     1.04300
C1177       C  0.11646596  0.45563819  0.49885168     0.93600
C1178       C  0.10558176  0.50877027  0.55428605     0.92700
C1179       C  0.11031457  0.45366893  0.55331602     0.84900
C1180       C  0.11205218  0.51005348  0.50015967     0.91200
O1181       O  0.46645072  0.07718229  0.54997934    -0.72600
O1182       O  0.50783638  0.07664708  0.50785688    -0.73600
O1183       O  0.50843489  0.07671759  0.54975869    -0.62200
O1184       O  0.46633425  0.07683001  0.50869000    -0.70600
O1185       O  0.46798801  0.10924605  0.50735076    -0.70200
O1186       O  0.50768836  0.10917408  0.55100299    -0.61400
O1187       O  0.50960323  0.10905145  0.50940603    -0.73900
O1188       O  0.46649505  0.10967411  0.54929197    -0.72700
Cu1189     Cu  0.48730277  0.07569813  0.52910586     1.04600
Cu1190     Cu  0.48793254  0.11042153  0.52923616     1.04300
C1191       C  0.45985893  0.09360809  0.55608820     0.93600
C1192       C  0.51523748  0.09280206  0.50207077     0.92700
C1193       C  0.51444373  0.09284271  0.55709346     0.84900
C1194       C  0.46075205  0.09305932  0.50135431     0.91200
O1195       O  0.90057118  0.48708766  0.53821936    -0.72600
O1196       O  0.90011530  0.44493406  0.49679888    -0.73600
O1197       O  0.90163151  0.48658877  0.49646788    -0.62200
O1198       O  0.89908637  0.44520771  0.53852478    -0.70600
O1199       O  0.86687238  0.44419285  0.53494635    -0.70200
O1200       O  0.86946513  0.49035934  0.49848656    -0.61400
O1201       O  0.86807455  0.44911325  0.49377223    -0.73900
O1202       O  0.86821081  0.48556407  0.53979469    -0.72700
Cu1203     Cu  0.90154065  0.46590792  0.51756511     1.04600
Cu1204     Cu  0.86702281  0.46734419  0.51674957     1.04300
C1205       C  0.88439306  0.49261811  0.54579464     0.93600
C1206       C  0.88396017  0.44091582  0.48835025     0.92700
C1207       C  0.88592687  0.49526672  0.49120392     0.84900
C1208       C  0.88253527  0.43772585  0.54281006     0.91200
O1209       O  0.47806091  0.87445600  0.55290673    -0.72600
O1210       O  0.51822082  0.87081292  0.50953995    -0.73600
O1211       O  0.47640981  0.87526619  0.51104733    -0.62200
O1212       O  0.51938315  0.87019623  0.55093474    -0.70600
O1213       O  0.51502542  0.83801355  0.55147619    -0.70200
O1214       O  0.47445730  0.84287830  0.50923503    -0.61400
O1215       O  0.51528777  0.83845612  0.50949532    -0.73900
O1216       O  0.47356871  0.84236382  0.55078147    -0.72700
Cu1217     Cu  0.49811772  0.87383958  0.53111218     1.04600
Cu1218     Cu  0.49448836  0.83931292  0.53028072     1.04300
C1219       C  0.46936263  0.85888798  0.55847942     0.93600
C1220       C  0.52309616  0.85401852  0.50280299     0.92700
C1221       C  0.46896383  0.85981500  0.50360440     0.84900
C1222       C  0.52377039  0.85333538  0.55765899     0.91200
O1223       O  0.46771689  0.49709494  0.92911704    -0.72600
O1224       O  0.51000797  0.45582136  0.93101776    -0.73600
O1225       O  0.50960177  0.49782359  0.93135296    -0.62200
O1226       O  0.46867408  0.45538288  0.92866847    -0.70600
O1227       O  0.46954120  0.45701722  0.89626084    -0.70200
O1228       O  0.51253362  0.49686919  0.89903005    -0.61400
O1229       O  0.51144871  0.45581599  0.89857240    -0.73900
O1230       O  0.47103150  0.49873060  0.89687277    -0.72700
Cu1231     Cu  0.48893544  0.47654608  0.93119368     1.04600
Cu1232     Cu  0.49114351  0.47709891  0.89656405     1.04300
C1233       C  0.46287198  0.50453525  0.91267686     0.93600
C1234       C  0.51737193  0.44938326  0.91508214     0.92700
C1235       C  0.51782317  0.50363730  0.91558548     0.84900
C1236       C  0.46251871  0.44972877  0.91197037     0.91200
O1237       O  0.96537640  0.99752673  0.37295259    -0.72600
O1238       O  0.00871827  0.95734040  0.36958646    -0.73600
O1239       O  0.96711876  0.95625429  0.37412886    -0.62200
O1240       O  0.00692655  0.99943813  0.36820425    -0.70600
O1241       O  0.01087526  0.00017012  0.40040750    -0.70200
O1242       O  0.97119979  0.95692654  0.40632291    -0.61400
O1243       O  0.01251621  0.95906661  0.40177852    -0.73900
O1244       O  0.96954952  0.99903850  0.40512125    -0.72700
Cu1245     Cu  0.98693562  0.97759776  0.37006924     1.04600
Cu1246     Cu  0.99109276  0.97883760  0.40451715     1.04300
C1247       C  0.96072210  0.00458916  0.38962223     0.93600
C1248       C  0.01751536  0.95202552  0.38521946     0.92700
C1249       C  0.96290253  0.94982357  0.39113635     0.84900
C1250       C  0.01526964  0.00648201  0.38339529     0.91200
O1251       O  0.97066591  0.95105399  0.62971404    -0.72600
O1252       O  0.01108571  0.99361728  0.63161105    -0.73600
O1253       O  0.01255964  0.95155456  0.62910205    -0.62200
O1254       O  0.96984711  0.99267533  0.63253274    -0.70600
O1255       O  0.96936200  0.98902585  0.66477758    -0.70200
O1256       O  0.01435458  0.95103999  0.66150099    -0.61400
O1257       O  0.01121875  0.99214730  0.66405171    -0.73900
O1258       O  0.97287983  0.94750737  0.66190262    -0.72700
Cu1259     Cu  0.99104027  0.97224970  0.62958878     1.04600
Cu1260     Cu  0.99194685  0.96986068  0.66418270     1.04300
C1261       C  0.96551211  0.94249564  0.64547267     0.93600
C1262       C  0.01728586  0.99976907  0.64811657     0.92700
C1263       C  0.02042734  0.94516391  0.64485044     0.84900
C1264       C  0.96276241  0.99710338  0.64926250     0.91200
O1265       O  0.35096022  0.95929075  0.05099671    -0.72600
O1266       O  0.35285987  0.00022398  0.00852500    -0.73600
O1267       O  0.35430661  0.95863549  0.00996654    -0.62200
O1268       O  0.34910817  0.00123757  0.05006265    -0.70600
O1269       O  0.38129812  0.00158306  0.05401451    -0.70200
O1270       O  0.38663102  0.96105062  0.01114113    -0.61400
O1271       O  0.38490962  0.00297690  0.01262064    -0.73900
O1272       O  0.38331428  0.96019924  0.05311934    -0.72700
Cu1273     Cu  0.35069234  0.97984072  0.02979466     1.04600
Cu1274     Cu  0.38519105  0.98147954  0.03278473     1.04300
C1275       C  0.36691870  0.95316930  0.05857909     0.93600
C1276       C  0.36915047  0.00820487  0.00409057     0.92700
C1277       C  0.37117968  0.95317761  0.00416875     0.84900
C1278       C  0.36430244  0.00792260  0.05857469     0.91200
O1279       O  0.00213696  0.37050488  0.99722849    -0.72600
O1280       O  0.96018628  0.36797956  0.03885699    -0.73600
O1281       O  0.00188631  0.36661275  0.03836495    -0.62200
O1282       O  0.96001409  0.37189745  0.99713931    -0.70600
O1283       O  0.96033721  0.33967429  0.99293582    -0.70200
O1284       O  0.99935826  0.33427668  0.03649992    -0.61400
O1285       O  0.95762960  0.33592845  0.03432600    -0.73900
O1286       O  0.00148167  0.33811982  0.99472855    -0.72700
Cu1287     Cu  0.98104569  0.37039269  0.01800401     1.04600
Cu1288     Cu  0.97967454  0.33587410  0.01456306     1.04300
C1289       C  0.00854077  0.35464649  0.98959972     0.93600
C1290       C  0.95213320  0.35162580  0.04294566     0.92700
C1291       C  0.00706293  0.34956651  0.04399906     0.84900
C1292       C  0.95396027  0.35659716  0.98824331     0.91200
O1293       O  0.61579322  0.95596156  0.00710044    -0.72600
O1294       O  0.61366955  0.99695892  0.04918585    -0.73600
O1295       O  0.61544131  0.95543820  0.04912926    -0.62200
O1296       O  0.61423046  0.99758887  0.00822099    -0.70600
O1297       O  0.58184546  0.99600572  0.00746998    -0.70200
O1298       O  0.58309288  0.95316089  0.04838674    -0.61400
O1299       O  0.58128037  0.99489765  0.04952719    -0.73900
O1300       O  0.58339989  0.95412038  0.00708486    -0.72700
Cu1301     Cu  0.61589812  0.97644754  0.02840949     1.04600
Cu1302     Cu  0.58124458  0.97452845  0.02808955     1.04300
C1303       C  0.59996916  0.94858342  0.00049108     0.93600
C1304       C  0.59712346  0.00244834  0.05586217     0.92700
C1305       C  0.59958599  0.94773934  0.05527807     0.84900
C1306       C  0.59788247  0.00361599  0.00156786     0.91200
O1307       O  0.96109191  0.58563313  0.04203691    -0.72600
O1308       O  0.00296443  0.58126796  0.00060069    -0.73600
O1309       O  0.00234131  0.58357976  0.04248572    -0.62200
O1310       O  0.96121428  0.58334607  0.00042071    -0.70600
O1311       O  0.96445955  0.61550160  0.99712842    -0.70200
O1312       O  0.00299844  0.61605577  0.04138411    -0.61400
O1313       O  0.00581196  0.61362541  0.00044112    -0.73900
O1314       O  0.96118897  0.61795471  0.03871267    -0.72700
Cu1315     Cu  0.98183090  0.58229790  0.02141299     1.04600
Cu1316     Cu  0.98360504  0.61691163  0.01936196     1.04300
C1317       C  0.95448573  0.60248263  0.04676124     0.93600
C1318       C  0.01130747  0.59680674  0.99440092     0.92700
C1319       C  0.00904556  0.59991471  0.04860418     0.84900
C1320       C  0.95661301  0.59937720  0.99196955     0.91200
C1321       C  0.40829429  0.42109653  0.13626465     0.30100
C1322       C  0.39136584  0.41435472  0.12681887    -0.36200
C1323       C  0.38221519  0.39807368  0.13530081     0.16100
C1324       C  0.38945915  0.38885062  0.15172813     0.21900
C1325       C  0.40607909  0.39588782  0.16144993    -0.34300
C1326       C  0.41503018  0.41235490  0.15316023     0.16000
O1327       O  0.41951769  0.43568486  0.13052226    -0.26300
C1328       C  0.43343132  0.43650395  0.14409626     0.05800
C1329       C  0.43128679  0.42244761  0.15863373    -0.31200
O1330       O  0.37923024  0.37327223  0.15657640    -0.23100
C1331       C  0.36503119  0.37270709  0.14331655    -0.03100
C1332       C  0.36601205  0.38786069  0.12980186    -0.17500
H1333       H  0.38584883  0.42118458  0.11365559     0.20500
H1334       H  0.41176997  0.38886669  0.17443884     0.18900
H1335       H  0.44065189  0.41975002  0.17109666     0.18800
H1336       H  0.35650075  0.39058867  0.11745873     0.14700
C1337       C  0.13057333  0.41799622  0.46669434     0.30100
C1338       C  0.14121009  0.40155899  0.46031155    -0.36200
C1339       C  0.13506722  0.39309085  0.44262564     0.16100
C1340       C  0.11983198  0.40058310  0.43171185     0.21900
C1341       C  0.10906752  0.41686614  0.43819096    -0.34300
C1342       C  0.11490201  0.42502457  0.45609441     0.16000
O1343       O  0.13350910  0.42797980  0.48299294    -0.26300
C1344       C  0.11930421  0.44133708  0.48297282     0.05800
C1345       C  0.10725595  0.44012916  0.46664409    -0.31200
O1346       O  0.11662566  0.39044593  0.41559675    -0.23100
C1347       C  0.12974214  0.37604814  0.41634628    -0.03100
C1348       C  0.14156656  0.37690038  0.43287029    -0.17500
H1349       H  0.15323977  0.39560899  0.46869487     0.20500
H1350       H  0.09680378  0.42259157  0.42999003     0.18900
H1351       H  0.09473051  0.44914259  0.46306884     0.18800
H1352       H  0.15325782  0.36705519  0.43702318     0.14700
C1353       C  0.42220161  0.08398342  0.46877253     0.30100
C1354       C  0.40562917  0.07434481  0.46140481    -0.36200
C1355       C  0.39740926  0.08229389  0.44433518     0.16100
C1356       C  0.40530245  0.09828596  0.43491390     0.21900
C1357       C  0.42167615  0.10805293  0.44242042    -0.34300
C1358       C  0.42957059  0.10043166  0.45972977     0.16000
O1359       O  0.43220190  0.07915296  0.48455773    -0.26300
C1360       C  0.44588821  0.09292155  0.48582969     0.05800
C1361       C  0.44489223  0.10660132  0.47083895    -0.31200
O1362       O  0.39540580  0.10324658  0.41914533    -0.23100
C1363       C  0.38074800  0.09052461  0.41860301    -0.03100
C1364       C  0.38115276  0.07717597  0.43395573    -0.17500
H1365       H  0.39945519  0.06168803  0.46859649     0.20500
H1366       H  0.42769455  0.12086553  0.43537418     0.18900
H1367       H  0.45432779  0.11902977  0.46831128     0.18800
H1368       H  0.37095254  0.06549388  0.43700182     0.14700
C1369       C  0.07393772  0.06927089  0.36995884     0.30100
C1370       C  0.05710443  0.06153485  0.36102464    -0.36200
C1371       C  0.04816568  0.04574607  0.37070511     0.16100
C1372       C  0.05510276  0.03840236  0.38817009     0.21900
C1373       C  0.07204380  0.04592474  0.39691658    -0.34300
C1374       C  0.08118545  0.06138083  0.38705123     0.16000
O1375       O  0.08457148  0.08410285  0.36360515    -0.26300
C1376       C  0.09900315  0.08543667  0.37662270     0.05800
C1377       C  0.09767001  0.07160019  0.39145123    -0.31200
O1378       O  0.04434662  0.02392633  0.39494405    -0.23100
C1379       C  0.03045158  0.02166210  0.38153382    -0.03100
C1380       C  0.03213393  0.03478144  0.36603472    -0.17500
H1381       H  0.05141721  0.06736884  0.34746230     0.20500
H1382       H  0.07775523  0.04006445  0.41045881     0.18900
H1383       H  0.10724537  0.06964897  0.40389120     0.18800
H1384       H  0.02280816  0.03614307  0.35333153     0.14700
C1385       C  0.36331993  0.06715706  0.12211695     0.30100
C1386       C  0.37507736  0.05180735  0.11512779    -0.36200
C1387       C  0.36804558  0.04180044  0.09866468     0.16100
C1388       C  0.35042531  0.04627018  0.08991545     0.21900
C1389       C  0.33875964  0.06179575  0.09676254    -0.34300
C1390       C  0.34603022  0.07211912  0.11296743     0.16000
O1391       O  0.36718415  0.07850551  0.13724028    -0.26300
C1392       C  0.35239673  0.09117157  0.13756784     0.05800
C1393       C  0.33882496  0.08798919  0.12275953    -0.31200
O1394       O  0.34661948  0.03483015  0.07482158    -0.23100
C1395       C  0.36215430  0.02309818  0.07372009    -0.03100
C1396       C  0.37598108  0.02682098  0.08813714    -0.17500
H1397       H  0.38884930  0.04804949  0.12194565     0.20500
H1398       H  0.32508857  0.06568498  0.08981524     0.18900
H1399       H  0.32550235  0.09603793  0.11983991     0.18800
H1400       H  0.38979572  0.01946705  0.09055439     0.14700
C1401       C  0.06312894  0.33610092  0.10873287     0.30100
C1402       C  0.04607704  0.32786705  0.10087611    -0.36200
C1403       C  0.03852763  0.33702607  0.08414362     0.16100
C1404       C  0.04694784  0.35340852  0.07592936     0.21900
C1405       C  0.06423615  0.36139520  0.08354062    -0.34300
C1406       C  0.07198595  0.35200961  0.10006431     0.16000
O1407       O  0.07232111  0.33026154  0.12465345    -0.26300
C1408       C  0.08745399  0.34237074  0.12601565     0.05800
C1409       C  0.08808405  0.35611075  0.11103363    -0.31200
O1410       O  0.03695010  0.36009368  0.06084322    -0.23100
C1411       C  0.02214787  0.34761041  0.05915844    -0.03100
C1412       C  0.02244399  0.33288569  0.07316817    -0.17500
H1413       H  0.03909119  0.31529826  0.10744829     0.20500
H1414       H  0.07107395  0.37412850  0.07712845     0.18900
H1415       H  0.09852625  0.36778505  0.10891828     0.18800
H1416       H  0.01206272  0.32114370  0.07521100     0.14700
C1417       C  0.88481474  0.37925065  0.42727211     0.30100
C1418       C  0.89466379  0.38406113  0.44464798    -0.36200
C1419       C  0.88897221  0.40165917  0.45366642     0.16100
C1420       C  0.87429205  0.41342897  0.44631162     0.21900
C1421       C  0.86472213  0.40881411  0.42879995    -0.34300
C1422       C  0.87069780  0.39148405  0.41958953     0.16000
O1423       O  0.88751081  0.36338684  0.41654155    -0.26300
C1424       C  0.87523251  0.36575458  0.40163037     0.05800
C1425       C  0.86447556  0.38299867  0.40272526    -0.31200
O1426       O  0.87065902  0.42870150  0.45751387    -0.23100
C1427       C  0.88341358  0.42694628  0.47206035    -0.03100
C1428       C  0.89531307  0.41048215  0.47040497    -0.17500
H1429       H  0.90590311  0.37471714  0.45073837     0.20500
H1430       H  0.85334123  0.41805769  0.42281586     0.18900
H1431       H  0.85335229  0.38825673  0.39277289     0.18800
H1432       H  0.90653673  0.40548017  0.48037406     0.14700
C1433       C  0.57028185  0.08870784  0.43508933     0.30100
C1434       C  0.55299853  0.07983996  0.44167579    -0.36200
C1435       C  0.54585031  0.08634100  0.45981368     0.16100
C1436       C  0.55477317  0.10096645  0.47047730     0.21900
C1437       C  0.57219051  0.10964540  0.46402339    -0.34300
C1438       C  0.57961056  0.10277567  0.44614362     0.16000
O1439       O  0.57962647  0.08476033  0.41864185    -0.26300
C1440       C  0.59533909  0.09617271  0.41937244     0.05800
C1441       C  0.59612976  0.10763897  0.43617465    -0.31200
O1442       O  0.54522961  0.10521355  0.48672188    -0.23100
C1443       C  0.53024390  0.09284188  0.48668134    -0.03100
C1444       C  0.52992711  0.08068526  0.47035954    -0.17500
H1445       H  0.54571719  0.06855494  0.43331713     0.20500
H1446       H  0.57951410  0.12087744  0.47241831     0.18900
H1447       H  0.60716666  0.11817539  0.44030264     0.18800
H1448       H  0.51923949  0.06965792  0.46661008     0.14700
C1449       C  0.55880763  0.38087559  0.14036289     0.30100
C1450       C  0.54255229  0.38833412  0.15042117    -0.36200
C1451       C  0.53463174  0.40581675  0.14318762     0.16100
C1452       C  0.54185601  0.41517623  0.12685411     0.21900
C1453       C  0.55837697  0.40784416  0.11691837    -0.34300
C1454       C  0.56662227  0.39051905  0.12446527     0.16000
O1455       O  0.56856096  0.36485109  0.14488519    -0.26300
C1456       C  0.58309408  0.36429469  0.13198537     0.05800
C1457       C  0.58273539  0.37995547  0.11894933    -0.31200
O1458       O  0.53190980  0.43126892  0.12260503    -0.23100
C1459       C  0.51839905  0.43232144  0.13663603    -0.03100
C1460       C  0.51950869  0.41693342  0.14986404    -0.17500
H1461       H  0.53661730  0.38110433  0.16317326     0.20500
H1462       H  0.56449898  0.41523596  0.10435141     0.18900
H1463       H  0.59279614  0.38301177  0.10713372     0.18800
H1464       H  0.51039631  0.41430141  0.16252809     0.14700
C1465       C  0.58978057  0.03310305  0.09630661     0.30100
C1466       C  0.58281159  0.03863731  0.11483274    -0.36200
C1467       C  0.58923414  0.05684488  0.12181965     0.16100
C1468       C  0.60129549  0.06895066  0.11111113     0.21900
C1469       C  0.60848738  0.06329956  0.09275937    -0.34300
C1470       C  0.60244012  0.04493762  0.08598996     0.16000
O1471       O  0.58584801  0.01664843  0.08698124    -0.26300
C1472       C  0.59643947  0.01789235  0.07071023     0.05800
C1473       C  0.60712168  0.03507912  0.06935714    -0.31200
O1474       O  0.60521011  0.08545730  0.12025548    -0.23100
C1475       C  0.59581203  0.08379344  0.13718632    -0.03100
C1476       C  0.58571029  0.06625820  0.13905386    -0.17500
H1477       H  0.57321270  0.02933731  0.12327059     0.20500
H1478       H  0.61826689  0.07250265  0.08442106     0.18900
H1479       H  0.61679538  0.03965989  0.05771095     0.18800
H1480       H  0.57692904  0.06130185  0.15123715     0.14700
C1481       C  0.91845320  0.03352369  0.38645616     0.30100
C1482       C  0.89939154  0.03844588  0.38065331    -0.36200
C1483       C  0.89265522  0.05698583  0.38645408     0.16100
C1484       C  0.90400082  0.06996814  0.39692192     0.21900
C1485       C  0.92289871  0.06485838  0.40312110    -0.34300
C1486       C  0.92950757  0.04616653  0.39763775     0.16000
O1487       O  0.92792371  0.01723754  0.38208711    -0.26300
C1488       C  0.94510254  0.01931204  0.39094058     0.05800
C1489       C  0.94687175  0.03693415  0.40095723    -0.31200
O1490       O  0.89512220  0.08690763  0.39987710    -0.23100
C1491       C  0.87773493  0.08460493  0.39148579    -0.03100
C1492       C  0.87534382  0.06622952  0.38303545    -0.17500
H1493       H  0.89051325  0.02860056  0.37202999     0.20500
H1494       H  0.93189927  0.07483389  0.41145980     0.18900
H1495       H  0.95937252  0.04236948  0.40896221     0.18800
H1496       H  0.86287006  0.06071687  0.37504108     0.14700
C1497       C  0.91942257  0.35827772  0.08212153     0.30100
C1498       C  0.91226701  0.36670430  0.09946900    -0.36200
C1499       C  0.89428875  0.35955644  0.10628389     0.16100
C1500       C  0.88381869  0.34536332  0.09650690     0.21900
C1501       C  0.89116619  0.33664936  0.07934379    -0.34300
C1502       C  0.90936597  0.34352660  0.07273688     0.16000
O1503       O  0.93572313  0.36307149  0.07296148    -0.26300
C1504       C  0.93636099  0.35098521  0.05768163     0.05800
C1505       C  0.92041591  0.33838048  0.05688573    -0.31200
O1506       O  0.86714074  0.34117008  0.10532422    -0.23100
C1507       C  0.86710758  0.35258908  0.12114068    -0.03100
C1508       C  0.88368019  0.36425281  0.12252310    -0.17500
H1509       H  0.92017095  0.37806644  0.10712423     0.20500
H1510       H  0.88325926  0.32529032  0.07168743     0.18900
H1511       H  0.91718075  0.32744445  0.04590232     0.18800
H1512       H  0.88731181  0.37472278  0.13382948     0.14700
C1513       C  0.58710737  0.85099204  0.44416648     0.30100
C1514       C  0.58289034  0.85962140  0.46235835    -0.36200
C1515       C  0.56432150  0.85570856  0.47016433     0.16100
C1516       C  0.55099741  0.84371663  0.46093424     0.21900
C1517       C  0.55507697  0.83537225  0.44258019    -0.34300
C1518       C  0.57347886  0.83965029  0.43457409     0.16000
O1519       O  0.60363037  0.85254442  0.43430950    -0.26300
C1520       C  0.60043931  0.84236030  0.41801437     0.05800
C1521       C  0.58187923  0.83410050  0.41733136    -0.31200
O1522       O  0.53482346  0.84143965  0.47120802    -0.23100
C1523       C  0.53764588  0.85245249  0.48702517    -0.03100
C1524       C  0.55568404  0.86177475  0.48712760    -0.17500
H1525       H  0.59336146  0.86875295  0.46990075     0.20500
H1526       H  0.54463674  0.82617388  0.43507433     0.18900
H1527       H  0.57565893  0.82501510  0.40596698     0.18800
H1528       H  0.56169784  0.87123767  0.49829439     0.14700
C1529       C  0.89158458  0.55312674  0.42669857     0.30100
C1530       C  0.89756614  0.53392090  0.43109562    -0.36200
C1531       C  0.89251078  0.52694059  0.44975479     0.16100
C1532       C  0.88187911  0.53792397  0.46298613     0.21900
C1533       C  0.87621815  0.55721216  0.45872883    -0.34300
C1534       C  0.88164934  0.56432728  0.44027150     0.16000
O1535       O  0.89438448  0.56251199  0.41002921    -0.26300
C1536       C  0.88644516  0.58007373  0.41313148     0.05800
C1537       C  0.87842168  0.58203219  0.43173460    -0.31200
O1538       O  0.87805891  0.52826569  0.47924853    -0.23100
C1539       C  0.88672355  0.51101322  0.47659500    -0.03100
C1540       C  0.89603247  0.50937167  0.45857139    -0.17500
H1541       H  0.90555020  0.52502656  0.42068862     0.20500
H1542       H  0.86808329  0.56604658  0.46907131     0.18900
H1543       H  0.87081727  0.59451850  0.43787024     0.18800
H1544       H  0.90381588  0.49687672  0.45268000     0.14700
C1545       C  0.56638960  0.56563921  0.13480270     0.30100
C1546       C  0.54856959  0.56029052  0.12606525    -0.36200
C1547       C  0.53999366  0.54292526  0.13294957     0.16100
C1548       C  0.54817409  0.53187189  0.14772652     0.21900
C1549       C  0.56611966  0.53701234  0.15617952    -0.34300
C1550       C  0.57488553  0.55408896  0.14900562     0.16000
O1551       O  0.57686170  0.58139118  0.13086179    -0.26300
C1552       C  0.59243967  0.57964542  0.14242031     0.05800
C1553       C  0.59201836  0.56289030  0.15393105    -0.31200
O1554       O  0.53738594  0.51662360  0.15245183    -0.23100
C1555       C  0.52224362  0.51764085  0.14030602    -0.03100
C1556       C  0.52312443  0.53363595  0.12773125    -0.17500
H1557       H  0.54185719  0.56905339  0.11472402     0.20500
H1558       H  0.57278348  0.52829942  0.16758878     0.18900
H1559       H  0.60260330  0.55814762  0.16469372     0.18800
H1560       H  0.51265120  0.53798675  0.11669887     0.14700
C1561       C  0.88937359  0.61062419  0.10375862     0.30100
C1562       C  0.89373819  0.61559284  0.08427281    -0.36200
C1563       C  0.91249474  0.61038295  0.07758303     0.16100
C1564       C  0.92583541  0.60061282  0.08917311     0.21900
C1565       C  0.92161776  0.59600681  0.10869607    -0.34300
C1566       C  0.90306253  0.60150942  0.11545363     0.16000
O1567       O  0.87265829  0.61370538  0.11300276    -0.26300
C1568       C  0.87586349  0.60670905  0.13090688     0.05800
C1569       C  0.89456461  0.59908046  0.13325936    -0.31200
O1570       O  0.94218772  0.59645768  0.07982933    -0.23100
C1571       C  0.93950982  0.60397705  0.06210821    -0.03100
C1572       C  0.92135870  0.61293978  0.05985279    -0.17500
H1573       H  0.88323715  0.62291437  0.07496702     0.20500
H1574       H  0.93206008  0.58854438  0.11795949     0.18900
H1575       H  0.90083731  0.59232127  0.14611932     0.18800
H1576       H  0.91545110  0.61990722  0.04693200     0.14700
C1577       C  0.92294374  0.91782400  0.38805408     0.30100
C1578       C  0.90474425  0.91114246  0.38135924    -0.36200
C1579       C  0.89824939  0.89331426  0.38916355     0.16100
C1580       C  0.90910286  0.88251637  0.40231267     0.21900
C1581       C  0.92717379  0.88938002  0.40928200    -0.34300
C1582       C  0.93347112  0.90746880  0.40181460     0.16000
O1583       O  0.93189148  0.93397129  0.38246287    -0.26300
C1584       C  0.94818854  0.93423232  0.39307531     0.05800
C1585       C  0.94990774  0.91817445  0.40547605    -0.31200
O1586       O  0.90046661  0.86593009  0.40718427    -0.23100
C1587       C  0.88369067  0.86631477  0.39730937    -0.03100
C1588       C  0.88150714  0.88305308  0.38594101    -0.17500
H1589       H  0.89623323  0.91928513  0.37078699     0.20500
H1590       H  0.93571778  0.88120022  0.41979720     0.18900
H1591       H  0.96177656  0.91467521  0.41533247     0.18800
H1592       H  0.86948317  0.88689844  0.37640455     0.14700
C1593       C  0.61008010  0.89154375  0.12056032     0.30100
C1594       C  0.61603794  0.91034330  0.11490059    -0.36200
C1595       C  0.60853232  0.91723749  0.09709971     0.16100
C1596       C  0.59558905  0.90662694  0.08585009     0.21900
C1597       C  0.58977688  0.88770559  0.09141736    -0.34300
C1598       C  0.59769955  0.88059426  0.10900495     0.16000
O1599       O  0.61580848  0.88205994  0.13635951    -0.26300
C1600       C  0.60727176  0.86465472  0.13479082     0.05800
C1601       C  0.59586693  0.86287788  0.11802656    -0.31200
O1602       O  0.59036152  0.91601942  0.06977931    -0.23100
C1603       C  0.60040760  0.93266951  0.07061302    -0.03100
C1604       C  0.61200820  0.93416955  0.08721782    -0.17500
H1605       H  0.62612546  0.91886171  0.12359921     0.20500
H1606       H  0.58004160  0.87900871  0.08249575     0.18900
H1607       H  0.58752176  0.85034445  0.11319266     0.18800
H1608       H  0.62153879  0.94607247  0.09140261     0.14700
C1609       C  0.10488433  0.54300615  0.46137677     0.30100
C1610       C  0.09534150  0.55119673  0.44513006    -0.36200
C1611       C  0.10539259  0.56616072  0.43533005     0.16100
C1612       C  0.12339657  0.57292285  0.44136087     0.21900
C1613       C  0.13302400  0.56460219  0.45747316    -0.34300
C1614       C  0.12314719  0.54938434  0.46703068     0.16000
O1615       O  0.09835888  0.52859247  0.47243721    -0.26300
C1616       C  0.11274176  0.52553709  0.48519068     0.05800
C1617       C  0.12854581  0.53801826  0.48247524    -0.31200
O1618       O  0.13002188  0.58720677  0.43021975    -0.23100
C1619       C  0.11624329  0.58939872  0.41666473    -0.03100
C1620       C  0.10061464  0.57664446  0.41905653    -0.17500
H1621       H  0.08117587  0.54609998  0.44032563     0.20500
H1622       H  0.14730983  0.56951551  0.46211237     0.18900
H1623       H  0.14205857  0.53857299  0.49067029     0.18800
H1624       H  0.08756781  0.57544449  0.41020624     0.14700
C1625       C  0.40353762  0.86782813  0.44731118     0.30100
C1626       C  0.41042619  0.87672684  0.46451857    -0.36200
C1627       C  0.42819097  0.86948189  0.47188862     0.16100
C1628       C  0.43819695  0.85422525  0.46316036     0.21900
C1629       C  0.43155885  0.84564962  0.44576529    -0.34300
C1630       C  0.41406646  0.85316747  0.43819447     0.16000
O1631       O  0.38710062  0.87197115  0.43804565    -0.26300
C1632       C  0.38738083  0.86007160  0.42261401     0.05800
C1633       C  0.40384654  0.84814190  0.42190740    -0.31200
O1634       O  0.45383149  0.84895277  0.47309419    -0.23100
C1635       C  0.45413250  0.86124420  0.48817591    -0.03100
C1636       C  0.43864348  0.87447778  0.48814072    -0.17500
H1637       H  0.40243427  0.88836698  0.47172589     0.20500
H1638       H  0.43940647  0.83381482  0.43871223     0.18900
H1639       H  0.40750209  0.83707564  0.41116301     0.18800
H1640       H  0.43520977  0.88558771  0.49890911     0.14700
C1641       C  0.41212087  0.53784647  0.14129747     0.30100
C1642       C  0.39484517  0.54543772  0.13317680    -0.36200
C1643       C  0.38704862  0.56210554  0.14235710     0.16100
C1644       C  0.39590967  0.57100592  0.15814645     0.21900
C1645       C  0.41300430  0.56320020  0.16649372    -0.34300
C1646       C  0.42055490  0.54624962  0.15758562     0.16000
O1647       O  0.42196660  0.52247498  0.13492756    -0.26300
C1648       C  0.43671551  0.52075290  0.14749810     0.05800
C1649       C  0.43651731  0.53506592  0.16199884    -0.31200
O1650       O  0.38642299  0.58681243  0.16402890    -0.23100
C1651       C  0.37107714  0.58781071  0.15210254    -0.03100
C1652       C  0.37063342  0.57275580  0.13841215    -0.17500
H1653       H  0.38794155  0.53878308  0.12059399     0.20500
H1654       H  0.41991222  0.56985769  0.17907233     0.18900
H1655       H  0.44685088  0.53713861  0.17378975     0.18800
H1656       H  0.35994786  0.57025779  0.12702582     0.14700
C1657       C  0.37392262  0.92187936  0.09871900     0.30100
C1658       C  0.38245581  0.91528016  0.11622285    -0.36200
C1659       C  0.37441700  0.89822739  0.12436357     0.16100
C1660       C  0.35935678  0.88810026  0.11559372     0.21900
C1661       C  0.35061149  0.89487966  0.09829076    -0.34300
C1662       C  0.35832964  0.91217541  0.09041861     0.16000
O1663       O  0.37915009  0.93744476  0.08856522    -0.26300
C1664       C  0.36649014  0.93793258  0.07378862     0.05800
C1665       C  0.35312564  0.92263864  0.07425583    -0.31200
O1666       O  0.35446736  0.87221641  0.12537859    -0.23100
C1667       C  0.36626319  0.87233741  0.14084872    -0.03100
C1668       C  0.37891983  0.88824544  0.14107177    -0.17500
H1669       H  0.39446702  0.92295092  0.12305555     0.20500
H1670       H  0.33856808  0.88723636  0.09148258     0.18900
H1671       H  0.34151437  0.91952430  0.06398347     0.18800
H1672       H  0.39000454  0.89172543  0.15179632     0.14700
C1673       C  0.05111140  0.91418515  0.37574645     0.30100
C1674       C  0.05874519  0.89755240  0.36633936    -0.36200
C1675       C  0.07576544  0.88950500  0.37456982     0.16100
C1676       C  0.08489531  0.89746459  0.39070987     0.21900
C1677       C  0.07711658  0.91391769  0.40026789    -0.34300
C1678       C  0.05991857  0.92174703  0.39225403     0.16000
O1679       O  0.03520422  0.92397942  0.37072200    -0.26300
C1680       C  0.03368131  0.93779482  0.38438833     0.05800
C1681       C  0.04860766  0.93704765  0.39816795    -0.31200
O1682       O  0.10084655  0.88777002  0.39572274    -0.23100
C1683       C  0.10179035  0.87323378  0.38278950    -0.03100
C1684       C  0.08651064  0.87352557  0.36936138    -0.17500
H1685       H  0.05182604  0.89123808  0.35359057     0.20500
H1686       H  0.08392054  0.92010725  0.41313981     0.18900
H1687       H  0.05078779  0.94646485  0.41071302     0.18800
H1688       H  0.08384665  0.86352124  0.35738069     0.14700
C1689       C  0.06698643  0.59499980  0.11285491     0.30100
C1690       C  0.05078160  0.58469084  0.10567440    -0.36200
C1691       C  0.04190902  0.59244226  0.08888165     0.16100
C1692       C  0.04829182  0.60940353  0.08001886     0.21900
C1693       C  0.06473428  0.61948269  0.08695539    -0.34300
C1694       C  0.07385920  0.61149553  0.10349348     0.16000
O1695       O  0.07716362  0.59067589  0.12865383    -0.26300
C1696       C  0.09098515  0.60431713  0.12915209     0.05800
C1697       C  0.08975513  0.61758497  0.11380434    -0.31200
O1698       O  0.03744022  0.61439184  0.06489285    -0.23100
C1699       C  0.02414358  0.60026735  0.06383794    -0.03100
C1700       C  0.02626400  0.58613298  0.07830457    -0.17500
H1701       H  0.04541589  0.57159932  0.11273873     0.20500
H1702       H  0.07000541  0.63266066  0.07997863     0.18900
H1703       H  0.09885138  0.63022093  0.11106414     0.18800
H1704       H  0.01739451  0.57328631  0.08080260     0.14700
C1705       C  0.58107063  0.84171322  0.62167234     0.30100
C1706       C  0.56489377  0.83224385  0.61334716    -0.36200
C1707       C  0.55642539  0.84149760  0.59710681     0.16100
C1708       C  0.56319098  0.85904461  0.58980760     0.21900
C1709       C  0.57958771  0.86830902  0.59788743    -0.34300
C1710       C  0.58827862  0.85886789  0.61387808     0.16000
O1711       O  0.59100608  0.83587274  0.63713779    -0.26300
C1712       C  0.60496020  0.84926381  0.63901387     0.05800
C1713       C  0.60409583  0.86383187  0.62488205    -0.31200
O1714       O  0.55261925  0.86549686  0.57504169    -0.23100
C1715       C  0.53909131  0.85176010  0.57262307    -0.03100
C1716       C  0.54079554  0.83640542  0.58585901    -0.17500
H1717       H  0.55925215  0.81867022  0.61918013     0.20500
H1718       H  0.58513157  0.88196574  0.59215301     0.18900
H1719       H  0.61349859  0.87643576  0.62325924     0.18800
H1720       H  0.53158485  0.82363314  0.58725792     0.14700
C1721       C  0.55913842  0.53288700  0.90813663     0.30100
C1722       C  0.57640229  0.53886178  0.89883560    -0.36200
C1723       C  0.58521048  0.55579344  0.90632362     0.16100
C1724       C  0.57736277  0.56639451  0.92163741     0.21900
C1725       C  0.56030614  0.56016224  0.93122023    -0.34300
C1726       C  0.55169427  0.54297783  0.92398412     0.16000
O1727       O  0.54823298  0.51780968  0.90316267    -0.26300
C1728       C  0.53379485  0.51797851  0.91620636     0.05800
C1729       C  0.53525275  0.53321411  0.92963832    -0.31200
O1730       O  0.58757562  0.58227522  0.92566230    -0.23100
C1731       C  0.60235531  0.58158567  0.91301641    -0.03100
C1732       C  0.60169827  0.56537773  0.90071351    -0.17500
H1733       H  0.58246361  0.53094032  0.88652231     0.20500
H1734       H  0.55410805  0.56822202  0.94337188     0.18900
H1735       H  0.52532428  0.53688528  0.94141517     0.18800
H1736       H  0.61166882  0.56151889  0.88902807     0.14700
C1737       C  0.87480999  0.55033555  0.60988048     0.30100
C1738       C  0.86818897  0.53166524  0.60450696    -0.36200
C1739       C  0.87592542  0.52397349  0.58711435     0.16100
C1740       C  0.88959225  0.53376691  0.57598671     0.21900
C1741       C  0.89595088  0.55260426  0.58118396    -0.34300
C1742       C  0.88786710  0.56049569  0.59835870     0.16000
O1743       O  0.86956405  0.56022396  0.62561081    -0.26300
C1744       C  0.87908201  0.57709722  0.62397781     0.05800
C1745       C  0.89057434  0.57818029  0.60723292    -0.31200
O1746       O  0.89490746  0.52377090  0.56031708    -0.23100
C1747       C  0.88425446  0.50753425  0.56127622    -0.03100
C1748       C  0.87210156  0.50690656  0.57755779    -0.17500
H1749       H  0.85762012  0.52375611  0.61320147     0.20500
H1750       H  0.90632493  0.56061908  0.57235446     0.18900
H1751       H  0.89984928  0.59008796  0.60254116     0.18800
H1752       H  0.86186369  0.49557656  0.58163979     0.14700
C1753       C  0.89322432  0.59492555  0.93321062     0.30100
C1754       C  0.89854238  0.58652294  0.95114665    -0.36200
C1755       C  0.91631437  0.59284164  0.95910904     0.16100
C1756       C  0.92782891  0.60685137  0.95029249     0.21900
C1757       C  0.92267317  0.61502260  0.93218275    -0.34300
C1758       C  0.90511405  0.60835351  0.92399494     0.16000
O1759       O  0.87728197  0.59105337  0.92312826    -0.26300
C1760       C  0.87916603  0.60184447  0.90707435     0.05800
C1761       C  0.89621971  0.61286201  0.90675657    -0.31200
O1762       O  0.94348648  0.61109289  0.96068865    -0.23100
C1763       C  0.94215375  0.59935993  0.97614521    -0.03100
C1764       C  0.92564027  0.58757688  0.97588948    -0.17500
H1765       H  0.88949767  0.57574189  0.95834329     0.20500
H1766       H  0.93174343  0.62576500  0.92495871     0.18900
H1767       H  0.90120334  0.62284328  0.89554646     0.18800
H1768       H  0.92098498  0.57704402  0.98673096     0.14700
C1769       C  0.59907548  0.88291583  0.94369950     0.30100
C1770       C  0.58860306  0.88957894  0.96010202    -0.36200
C1771       C  0.59477858  0.90745152  0.96814563     0.16100
C1772       C  0.61042991  0.91782784  0.96080672     0.21900
C1773       C  0.62055959  0.91142481  0.94414969    -0.34300
C1774       C  0.61415264  0.89378491  0.93589650     0.16000
O1775       O  0.59623865  0.86634250  0.93414471    -0.26300
C1776       C  0.60942514  0.86686364  0.91983188     0.05800
C1777       C  0.62085088  0.88364283  0.92012591    -0.31200
O1778       O  0.61438783  0.93359626  0.97119960    -0.23100
C1779       C  0.60086261  0.93354841  0.98516092    -0.03100
C1780       C  0.58814926  0.91773828  0.98391471    -0.17500
H1781       H  0.57662081  0.88132709  0.96627088     0.20500
H1782       H  0.63272424  0.91953574  0.93815216     0.18900
H1783       H  0.63272273  0.88751108  0.91042071     0.18800
H1784       H  0.57617683  0.91408444  0.99358002     0.14700
C1785       C  0.92646694  0.91072856  0.63588182     0.30100
C1786       C  0.90931786  0.90422265  0.62665572    -0.36200
C1787       C  0.90116141  0.88689680  0.63404071     0.16100
C1788       C  0.90960091  0.87646320  0.64912322     0.21900
C1789       C  0.92652599  0.88313433  0.65854123    -0.34300
C1790       C  0.93440961  0.90066433  0.65146927     0.16000
O1791       O  0.93649601  0.92660269  0.63148195    -0.26300
C1792       C  0.95081703  0.92686449  0.64465529     0.05800
C1793       C  0.95018677  0.91115038  0.65752480    -0.31200
O1794       O  0.89983514  0.86044407  0.65343142    -0.23100
C1795       C  0.88472730  0.86077233  0.64122247    -0.03100
C1796       C  0.88467429  0.87694837  0.62888754    -0.17500
H1797       H  0.90272644  0.91218282  0.61467125     0.20500
H1798       H  0.93301883  0.87526513  0.67063900     0.18900
H1799       H  0.96003369  0.90787016  0.66946593     0.18800
H1800       H  0.87416762  0.88065855  0.61765663     0.14700
C1801       C  0.41261054  0.86573721  0.62407124     0.30100
C1802       C  0.43026371  0.87423345  0.61782760    -0.36200
C1803       C  0.43784342  0.86731194  0.59996436     0.16100
C1804       C  0.42889176  0.85271192  0.58929243     0.21900
C1805       C  0.41114349  0.84449644  0.59534748    -0.34300
C1806       C  0.40336887  0.85171275  0.61290146     0.16000
O1807       O  0.40295389  0.86976510  0.64036067    -0.26300
C1808       C  0.38716387  0.85842925  0.63933249     0.05800
C1809       C  0.38663907  0.84698891  0.62252651    -0.31200
O1810       O  0.43879069  0.84786823  0.57345949    -0.23100
C1811       C  0.45413458  0.85976114  0.57368203    -0.03100
C1812       C  0.45428637  0.87229632  0.58976976    -0.17500
H1813       H  0.43756570  0.88543020  0.62628573     0.20500
H1814       H  0.40389017  0.83322870  0.58693939     0.18900
H1815       H  0.37570384  0.83640351  0.61825373     0.18800
H1816       H  0.46516180  0.88310522  0.59360907     0.14700
C1817       C  0.10212454  0.57560870  0.60956132     0.30100
C1818       C  0.11006455  0.57068839  0.59128342    -0.36200
C1819       C  0.10561597  0.55195812  0.58421157     0.16100
C1820       C  0.09368301  0.53908844  0.59413270     0.21900
C1821       C  0.08584664  0.54396738  0.61254082    -0.34300
C1822       C  0.09074952  0.56255381  0.61988557     0.16000
O1823       O  0.10517408  0.59202609  0.61921757    -0.26300
C1824       C  0.09592137  0.58942238  0.63612513     0.05800
C1825       C  0.08671328  0.57131704  0.63741499    -0.31200
O1826       O  0.09162952  0.52226154  0.58478543    -0.23100
C1827       C  0.10270609  0.52432437  0.56890063    -0.03100
C1828       C  0.11179993  0.54244502  0.56782927    -0.17500
H1829       H  0.11948323  0.58060109  0.58335321     0.20500
H1830       H  0.07695868  0.53380932  0.62076498     0.18900
H1831       H  0.07848906  0.56542047  0.64956554     0.18800
H1832       H  0.12159065  0.54776971  0.55660744     0.14700
C1833       C  0.42240287  0.53591324  0.91814512     0.30100
C1834       C  0.40450907  0.54253252  0.92587575    -0.36200
C1835       C  0.39632883  0.55916650  0.91693963     0.16100
C1836       C  0.40540444  0.56890425  0.90179101     0.21900
C1837       C  0.42309725  0.56210820  0.89386295    -0.34300
C1838       C  0.43102325  0.54523742  0.90248056     0.16000
O1839       O  0.43258738  0.52057596  0.92411551    -0.26300
C1840       C  0.44772590  0.51988892  0.91186939     0.05800
C1841       C  0.44744836  0.53481561  0.89806482    -0.31200
O1842       O  0.39560064  0.58455088  0.89611352    -0.23100
C1843       C  0.37980784  0.58465338  0.90747950    -0.03100
C1844       C  0.37938621  0.56912917  0.92063073    -0.17500
H1845       H  0.39741613  0.53517591  0.93794153     0.20500
H1846       H  0.43016372  0.56943456  0.88176173     0.18900
H1847       H  0.45791506  0.53761905  0.88653943     0.18800
H1848       H  0.36846287  0.56599058  0.93162887     0.14700
C1849       C  0.05372425  0.60258359  0.96624004     0.30100
C1850       C  0.07159747  0.61105131  0.96086447    -0.36200
C1851       C  0.08026904  0.60374954  0.94374507     0.16100
C1852       C  0.07176238  0.58938139  0.93242055     0.21900
C1853       C  0.05407468  0.58058328  0.93805486    -0.34300
C1854       C  0.04557690  0.58761936  0.95542756     0.16000
O1855       O  0.04280275  0.60769057  0.98130974    -0.26300
C1856       C  0.02762949  0.59558899  0.98042957     0.05800
C1857       C  0.02862447  0.58264581  0.96472416    -0.31200
O1858       O  0.08199691  0.58546284  0.91647930    -0.23100
C1859       C  0.09743997  0.59720877  0.91784724    -0.03100
C1860       C  0.09718321  0.60881296  0.93457204    -0.17500
H1861       H  0.07818957  0.62267228  0.96934103     0.20500
H1862       H  0.04732248  0.56918434  0.92940914     0.18900
H1863       H  0.01806066  0.57170291  0.96041929     0.18800
H1864       H  0.10769200  0.61975039  0.93902995     0.14700
C1865       C  0.08118717  0.88298247  0.63910965     0.30100
C1866       C  0.06414238  0.88910371  0.62934494    -0.36200
C1867       C  0.05519692  0.90623925  0.63648760     0.16100
C1868       C  0.06231200  0.91636458  0.65242531     0.21900
C1869       C  0.07955445  0.91049748  0.66190549    -0.34300
C1870       C  0.08870275  0.89363853  0.65450609     0.16000
O1871       O  0.09163319  0.86712860  0.63525975    -0.26300
C1872       C  0.10623502  0.86788537  0.64811097     0.05800
C1873       C  0.10521982  0.88413023  0.66035387    -0.31200
O1874       O  0.05110816  0.93132749  0.65734357    -0.23100
C1875       C  0.03680768  0.93110542  0.64415398    -0.03100
C1876       C  0.03865260  0.91589139  0.63070486    -0.17500
H1877       H  0.05818111  0.88098511  0.61714335     0.20500
H1878       H  0.08534295  0.91843471  0.67431122     0.18900
H1879       H  0.11494368  0.88802964  0.67220234     0.18800
H1880       H  0.02886451  0.91211278  0.61887360     0.14700
C1881       C  0.36648331  0.88652531  0.94891413     0.30100
C1882       C  0.35926457  0.89238413  0.96720106    -0.36200
C1883       C  0.36591561  0.91047487  0.97417256     0.16100
C1884       C  0.37908794  0.92192926  0.96408257     0.21900
C1885       C  0.38607906  0.91619767  0.94559015    -0.34300
C1886       C  0.37911963  0.89822081  0.93842494     0.16000
O1887       O  0.36224104  0.87009737  0.93973646    -0.26300
C1888       C  0.37202995  0.87136244  0.92298224     0.05800
C1889       C  0.38268355  0.88860740  0.92127597    -0.31200
O1890       O  0.38332499  0.93830527  0.97349391    -0.23100
C1891       C  0.37247378  0.93735753  0.98963907    -0.03100
C1892       C  0.36129830  0.92045471  0.99075518    -0.17500
H1893       H  0.34905771  0.88350577  0.97537655     0.20500
H1894       H  0.39610646  0.92517990  0.93730984     0.18900
H1895       H  0.39195365  0.89318920  0.90931092     0.18800
H1896       H  0.35113913  0.91623813  0.00212299     0.14700
C1897       C  0.11816277  0.42051423  0.59176679     0.30100
C1898       C  0.12695060  0.41327035  0.60884518    -0.36200
C1899       C  0.12014531  0.39510632  0.61551944     0.16100
C1900       C  0.10596981  0.38452411  0.60584879     0.21900
C1901       C  0.09693170  0.39193949  0.58893502    -0.34300
C1902       C  0.10344733  0.41033234  0.58248333     0.16000
O1903       O  0.12250835  0.43705263  0.58281632    -0.26300
C1904       C  0.11016067  0.43770084  0.56779471     0.05800
C1905       C  0.09786534  0.42152260  0.56692352    -0.31200
O1906       O  0.10213461  0.36767025  0.61451376    -0.23100
C1907       C  0.11376593  0.36766690  0.63012101    -0.03100
C1908       C  0.12520918  0.38440080  0.63152194    -0.17500
H1909       H  0.13829040  0.42125941  0.61642624     0.20500
H1910       H  0.08558046  0.38395840  0.58136593     0.18900
H1911       H  0.08682203  0.41825620  0.55608818     0.18800
H1912       H  0.13581161  0.38805233  0.64267300     0.14700
C1913       C  0.40373681  0.10193772  0.62162428     0.30100
C1914       C  0.42051080  0.11097793  0.61411575    -0.36200
C1915       C  0.42810679  0.10294563  0.59682780     0.16100
C1916       C  0.42001957  0.08685615  0.58771480     0.21900
C1917       C  0.40292305  0.07810576  0.59496232    -0.34300
C1918       C  0.39509945  0.08638608  0.61209119     0.16000
O1919       O  0.39456561  0.10673605  0.63791138    -0.26300
C1920       C  0.37963610  0.09434384  0.63867334     0.05800
C1921       C  0.37909773  0.08145635  0.62290872    -0.31200
O1922       O  0.43014057  0.08123101  0.57222649    -0.23100
C1923       C  0.44464415  0.09414434  0.57124998    -0.03100
C1924       C  0.44402055  0.10806080  0.58607130    -0.17500
H1925       H  0.42727451  0.12331601  0.62135023     0.20500
H1926       H  0.39629028  0.06562489  0.58785317     0.18900
H1927       H  0.36871981  0.06986024  0.62013322     0.18800
H1928       H  0.45413420  0.11990865  0.58877458     0.14700
C1929       C  0.39739602  0.39352428  0.90127451     0.30100
C1930       C  0.40600033  0.40949550  0.89169427    -0.36200
C1931       C  0.42234935  0.41775229  0.90089174     0.16100
C1932       C  0.42949431  0.41104444  0.91853041     0.21900
C1933       C  0.42111237  0.39482951  0.92792902    -0.34300
C1934       C  0.40501523  0.38629715  0.91850901     0.16000
O1935       O  0.38185448  0.38376331  0.89540577    -0.26300
C1936       C  0.37972366  0.36985500  0.90883723     0.05800
C1937       C  0.39378195  0.37060967  0.92348991    -0.31200
O1938       O  0.44447672  0.42141313  0.92484119    -0.23100
C1939       C  0.44717718  0.43471149  0.91088804    -0.03100
C1940       C  0.43391709  0.43305498  0.89557165    -0.17500
H1941       H  0.40032568  0.41510906  0.87803299     0.20500
H1942       H  0.42673810  0.38926622  0.94163064     0.18900
H1943       H  0.39522264  0.36122200  0.93614536     0.18800
H1944       H  0.43273957  0.44208653  0.88263222     0.14700
C1945       C  0.36636149  0.06468314  0.93834163     0.30100
C1946       C  0.35788753  0.04696397  0.94418255    -0.36200
C1947       C  0.36389163  0.03963993  0.96234966     0.16100
C1948       C  0.37767556  0.04884271  0.97382806     0.21900
C1949       C  0.38590912  0.06681365  0.96814502    -0.34300
C1950       C  0.37954686  0.07438775  0.95011692     0.16000
O1951       O  0.36277181  0.07406666  0.92190280    -0.26300
C1952       C  0.37349617  0.09020677  0.92323384     0.05800
C1953       C  0.38416536  0.09130229  0.94053601    -0.31200
O1954       O  0.38155469  0.03897533  0.98998639    -0.23100
C1955       C  0.36979460  0.02349308  0.98896488    -0.03100
C1956       C  0.35839605  0.02322385  0.97216431    -0.17500
H1957       H  0.34727414  0.03943962  0.93519949     0.20500
H1958       H  0.39646833  0.07437559  0.97715985     0.18900
H1959       H  0.39399069  0.10276579  0.94522728     0.18800
H1960       H  0.34788219  0.01229995  0.96768490     0.14700
C1961       C  0.05636258  0.03170325  0.65657573     0.30100
C1962       C  0.07410608  0.03782405  0.66478744    -0.36200
C1963       C  0.08175552  0.05541276  0.65755967     0.16100
C1964       C  0.07237099  0.06654250  0.64357504     0.21900
C1965       C  0.05472473  0.06028317  0.63515964    -0.34300
C1966       C  0.04731924  0.04240821  0.64203883     0.16000
O1967       O  0.04682614  0.01552614  0.66092886    -0.26300
C1968       C  0.03167314  0.01566514  0.64876622     0.05800
C1969       C  0.03126241  0.03196434  0.63659510    -0.31200
O1970       O  0.08211031  0.08261701  0.63915000    -0.23100
C1971       C  0.09810374  0.08153218  0.65018553    -0.03100
C1972       C  0.09868668  0.06488755  0.66185127    -0.17500
H1973       H  0.08157237  0.02931845  0.67585150     0.20500
H1974       H  0.04742969  0.06861705  0.62385453     0.18900
H1975       H  0.02063174  0.03558353  0.62544998     0.18800
H1976       H  0.10990868  0.06050839  0.67210945     0.14700
C1977       C  0.06699444  0.35139335  0.92530905     0.30100
C1978       C  0.04832367  0.34425426  0.92992952    -0.36200
C1979       C  0.04070710  0.34986635  0.94816856     0.16100
C1980       C  0.05054966  0.36209201  0.96083680     0.21900
C1981       C  0.06938330  0.36901055  0.95633288    -0.34300
C1982       C  0.07720402  0.36301773  0.93824527     0.16000
O1983       O  0.07687727  0.34781111  0.90910261    -0.26300
C1984       C  0.09382208  0.35697057  0.91174266     0.05800
C1985       C  0.09489655  0.36661167  0.92967728    -0.31200
O1986       O  0.04047491  0.36572526  0.97696400    -0.23100
C1987       C  0.02414567  0.35537556  0.97472841    -0.03100
C1988       C  0.02355646  0.34514280  0.95714897    -0.17500
H1989       H  0.04035185  0.33482146  0.92004711     0.20500
H1990       H  0.07743745  0.37828174  0.96629946     0.18900
H1991       H  0.10688164  0.37514541  0.93544847     0.18800
H1992       H  0.01205492  0.33575090  0.95172775     0.14700
C1993       C  0.54523166  0.10139127  0.59726301     0.30100
C1994       C  0.55222541  0.11132612  0.61382128    -0.36200
C1995       C  0.56788153  0.10243353  0.62369015     0.16100
C1996       C  0.57642649  0.08520615  0.61743117     0.21900
C1997       C  0.56924004  0.07512353  0.60103828    -0.34300
C1998       C  0.55328319  0.08378435  0.59143062     0.16000
O1999       O  0.53068564  0.10702322  0.58589160    -0.26300
C2000       C  0.52917807  0.09267886  0.57278652     0.05800
C2001       C  0.54278913  0.07777928  0.57558591    -0.31200
O2002       O  0.59120195  0.07976316  0.62861478    -0.23100
C2003       C  0.59184284  0.09347168  0.64244303    -0.03100
C2004       C  0.57763968  0.10788557  0.64017186    -0.17500
H2005       H  0.54582078  0.12496856  0.61874483     0.20500
H2006       H  0.57556986  0.06142305  0.59618347     0.18900
H2007       H  0.54478909  0.06458753  0.56703230     0.18800
H2008       H  0.57510207  0.12065942  0.64920635     0.14700
C2009       C  0.86999603  0.37068294  0.59641436     0.30100
C2010       C  0.86358528  0.37753859  0.57815115    -0.36200
C2011       C  0.87208337  0.39501886  0.57158306     0.16100
C2012       C  0.88628671  0.40482779  0.58201055     0.21900
C2013       C  0.89251865  0.39809477  0.60037708    -0.34300
C2014       C  0.88367661  0.38087799  0.60716115     0.16000
O2015       O  0.86370893  0.35489876  0.60555709    -0.26300
C2016       C  0.87325018  0.35518019  0.62251423     0.05800
C2017       C  0.88579091  0.37104981  0.62435899    -0.31200
O2018       O  0.89222694  0.42088873  0.57310632    -0.23100
C2019       C  0.88142076  0.42156153  0.55694711    -0.03100
C2020       C  0.86858696  0.40589980  0.55526269    -0.17500
H2021       H  0.85250739  0.36995637  0.56980203     0.20500
H2022       H  0.90326993  0.40591593  0.60893039     0.18900
H2023       H  0.89510484  0.37475823  0.63659093     0.18800
H2024       H  0.85819042  0.40301413  0.54369970     0.14700
C2025       C  0.58569101  0.39592099  0.91258749     0.30100
C2026       C  0.57917253  0.41350677  0.90423768    -0.36200
C2027       C  0.56063219  0.41999819  0.91013798     0.16100
C2028       C  0.54946152  0.41017910  0.92375681     0.21900
C2029       C  0.55588498  0.39242175  0.93193012    -0.34300
C2030       C  0.57425542  0.38566041  0.92564574     0.16000
O2031       O  0.60233440  0.38697086  0.90871195    -0.26300
C2032       C  0.60147241  0.37058606  0.91915815     0.05800
C2033       C  0.58430767  0.36892531  0.92994910    -0.31200
O2034       O  0.53276467  0.41920168  0.92746748    -0.23100
C2035       C  0.53311752  0.43473916  0.91574194    -0.03100
C2036       C  0.55002924  0.43592606  0.90455665    -0.17500
H2037       H  0.58784766  0.42143775  0.89366392     0.20500
H2038       H  0.54708629  0.38433967  0.94228231     0.18900
H2039       H  0.57986787  0.35707691  0.93943710     0.18800
H2040       H  0.55405284  0.44712613  0.89413561     0.14700
C2041       C  0.90170401  0.35581993  0.91917219     0.30100
C2042       C  0.91887729  0.34694210  0.92599943    -0.36200
C2043       C  0.92532534  0.35293752  0.94450012     0.16100
C2044       C  0.91584562  0.36706917  0.95542345     0.21900
C2045       C  0.89845155  0.37576595  0.94870518    -0.34300
C2046       C  0.89174518  0.36943462  0.93032588     0.16000
O2047       O  0.89290696  0.35202068  0.90245290    -0.26300
C2048       C  0.87691413  0.36309953  0.90296498     0.05800
C2049       C  0.87535051  0.37419595  0.91999402    -0.31200
O2050       O  0.92473577  0.37060105  0.97222513    -0.23100
C2051       C  0.93986141  0.35828788  0.97211732    -0.03100
C2052       C  0.94086115  0.34688238  0.95531436    -0.17500
H2053       H  0.92655074  0.33592539  0.91756834     0.20500
H2054       H  0.89059005  0.38652904  0.95728645     0.18900
H2055       H  0.86377978  0.38419510  0.92415803     0.18800
H2056       H  0.95162363  0.33585911  0.95156790     0.14700
C2057       C  0.93029870  0.03686578  0.64531952     0.30100
C2058       C  0.92335868  0.05494667  0.63837273    -0.36200
C2059       C  0.90532125  0.06129646  0.64592624     0.16100
C2060       C  0.89464947  0.05044669  0.65914449     0.21900
C2061       C  0.90180011  0.03256934  0.66642230    -0.34300
C2062       C  0.92001036  0.02638658  0.65913438     0.16000
O2063       O  0.94657972  0.02794449  0.63988896    -0.26300
C2064       C  0.94693138  0.01171434  0.65064611     0.05800
C2065       C  0.93085357  0.01004365  0.66299613    -0.31200
O2066       O  0.87780640  0.05881995  0.66368293    -0.23100
C2067       C  0.87781689  0.07542033  0.65348120    -0.03100
C2068       C  0.89463941  0.07778150  0.64227926    -0.17500
H2069       H  0.93140639  0.06342112  0.62772533     0.20500
H2070       H  0.89368435  0.02402381  0.67695954     0.18900
H2071       H  0.92744847  0.99825831  0.67298264     0.18800
H2072       H  0.89827876  0.08974126  0.63258897     0.14700
C2073       C  0.60703488  0.04456613  0.97204391     0.30100
C2074       C  0.61716845  0.06127846  0.96581191    -0.36200
C2075       C  0.60943804  0.07097322  0.94946474     0.16100
C2076       C  0.59313194  0.06441937  0.93958968     0.21900
C2077       C  0.58277571  0.04789509  0.94606175    -0.34300
C2078       C  0.59025726  0.03843653  0.96270748     0.16000
O2079       O  0.61188454  0.03314234  0.98681113    -0.26300
C2080       C  0.59784784  0.01969466  0.98722325     0.05800
C2081       C  0.58390208  0.02232257  0.97264597    -0.31200
O2082       O  0.58893321  0.07532263  0.92419093    -0.23100
C2083       C  0.60249154  0.08926059  0.92448867    -0.03100
C2084       C  0.61554925  0.08735871  0.93994625    -0.17500
H2085       H  0.63019873  0.06635191  0.97318188     0.20500
H2086       H  0.56981760  0.04275081  0.93861898     0.18900
H2087       H  0.57124526  0.01338363  0.96955017     0.18800
H2088       H  0.62799064  0.09648609  0.94336610     0.14700
loop_ 
_geom_bond_atom_site_label_1 
_geom_bond_atom_site_label_2 
_geom_bond_distance 
_geom_bond_site_symmetry_2 
_ccdc_geom_bond_type 
N1            N2   1.322       .  A
N1            C5   1.350       .  A
N1           Cu9   2.093       .  S
N2            C3   1.344       .  A
N2           Cu8   2.069       .  S
C3            C4   1.381       .  A
C3            H6   1.082       .  S
C4            C5   1.387       .  A
C4          C134   1.474       .  S
C5            H7   1.082       .  S
Cu8          N11   2.068       .  S
Cu9          N19   2.094       .  S
Cu10         N12   2.079       .  S
Cu10         N18   2.081       .  S
N11          N12   1.321       .  A
N11          C15   1.341       .  A
N12          C13   1.350       .  A
C13          C14   1.386       .  A
C13          H16   1.082       .  S
C14          C15   1.381       .  A
C14          C76   1.471       .  S
C15          H17   1.082       .  S
N18          N19   1.325       .  A
N18          C22   1.346       .  A
N19          C20   1.349       .  A
C20          C21   1.384       .  A
C20          H23   1.082       .  S
C21          C22   1.382       .  A
C21        C2083   1.474       .  S
C22          H24   1.082       .  S
N25          N26   1.322       .  A
N25          C29   1.352       .  A
N25         Cu33   2.097       .  S
N26          C27   1.341       .  A
N26         Cu32   2.057       .  S
C27          C28   1.378       .  A
C27          H30   1.082       .  S
C28          C29   1.389       .  A
C28         C124   1.471       .  S
C29          H31   1.082       .  S
Cu32         N35   2.057       .  S
Cu33         N43   2.099       .  S
Cu34         N36   2.093       .  S
Cu34         N42   2.095       .  S
N35          N36   1.321       .  A
N35          C39   1.342       .  A
N36          C37   1.351       .  A
C37          C38   1.388       .  A
C37          H40   1.082       .  S
C38          C39   1.379       .  A
C38         C100   1.472       .  S
C39          H41   1.082       .  S
N42          N43   1.326       .  A
N42          C46   1.348       .  A
N43          C44   1.349       .  A
C44          C45   1.385       .  A
C44          H47   1.082       .  S
C45          C46   1.384       .  A
C45        C2067   1.479       .  S
C46          H48   1.082       .  S
N49          N50   1.322       .  A
N49          C53   1.348       .  A
N49         Cu57   2.078       .  S
N50          C51   1.343       .  A
N50         Cu56   2.067       .  S
C51          C52   1.381       .  A
C51          H54   1.082       .  S
C52          C53   1.384       .  A
C52          C86   1.469       .  S
C53          H55   1.082       .  S
Cu56         N59   2.067       .  S
Cu57         N67   2.079       .  S
Cu58         N60   2.088       .  S
Cu58         N66   2.089       .  S
N59          N60   1.322       .  A
N59          C63   1.343       .  A
N60          C61   1.350       .  A
C61          C62   1.387       .  A
C61          H64   1.082       .  S
C62          C63   1.381       .  A
C62         C110   1.473       .  S
C63          H65   1.082       .  S
N66          N67   1.324       .  A
N66          C70   1.347       .  A
N67          C68   1.347       .  A
C68          C69   1.382       .  A
C68          H71   1.082       .  S
C69          C70   1.383       .  A
C69        C2048   1.473       .  S
C70          H72   1.082       .  S
N73          N74   1.322       .  A
N73          C77   1.351       .  A
N73         Cu81   2.090       .  S
N74          C75   1.340       .  A
N74         Cu80   2.060       .  S
C75          C76   1.378       .  A
C75          H78   1.082       .  S
C76          C77   1.388       .  A
C77          H79   1.082       .  S
Cu80         N83   2.059       .  S
Cu81         N91   2.091       .  S
Cu82         N84   2.076       .  S
Cu82         N90   2.078       .  S
N83          N84   1.320       .  A
N83          C87   1.342       .  A
N84          C85   1.348       .  A
C85          C86   1.385       .  A
C85          H88   1.082       .  S
C86          C87   1.381       .  A
C87          H89   1.082       .  S
N90          N91   1.325       .  A
N90          C94   1.345       .  A
N91          C92   1.349       .  A
C92          C93   1.385       .  A
C92          H95   1.082       .  S
C93          C94   1.380       .  A
C93        C2032   1.472       .  S
C94          H96   1.082       .  S
N97          N98   1.322       .  A
N97         C101   1.348       .  A
N97        Cu105   2.077       .  S
N98          C99   1.344       .  A
N98        Cu104   2.075       .  S
C99         C100   1.383       .  A
C99         H102   1.082       .  S
C100        C101   1.384       .  A
C101        H103   1.082       .  S
Cu104       N107   2.075       .  S
Cu105       N115   2.079       .  S
Cu106       N108   2.085       .  S
Cu106       N114   2.086       .  S
N107        N108   1.323       .  A
N107        C111   1.343       .  A
N108        C109   1.350       .  A
C109        C110   1.386       .  A
C109        H112   1.082       .  S
C110        C111   1.381       .  A
C111        H113   1.082       .  S
N114        N115   1.324       .  A
N114        C118   1.347       .  A
N115        C116   1.346       .  A
C116        C117   1.382       .  A
C116        H119   1.082       .  S
C117        C118   1.384       .  A
C117       C2016   1.472       .  S
C118        H120   1.082       .  S
N121        N122   1.323       .  A
N121        C125   1.350       .  A
N121       Cu129   2.086       .  S
N122        C123   1.343       .  A
N122       Cu128   2.075       .  S
C123        C124   1.381       .  A
C123        H126   1.082       .  S
C124        C125   1.385       .  A
C125        H127   1.082       .  S
Cu128       N131   2.074       .  S
Cu129       N139   2.087       .  S
Cu130       N132   2.083       .  S
Cu130       N138   2.085       .  S
N131        N132   1.321       .  A
N131        C135   1.344       .  A
N132        C133   1.349       .  A
C133        C134   1.386       .  A
C133        H136   1.082       .  S
C134        C135   1.382       .  A
C135        H137   1.082       .  S
N138        N139   1.325       .  A
N138        C142   1.346       .  A
N139        C140   1.348       .  A
C140        C141   1.383       .  A
C140        H143   1.082       .  S
C141        C142   1.382       .  A
C141       C2003   1.473       .  S
C142        H144   1.082       .  S
N145        N146   1.323       .  A
N145        C149   1.352       .  A
N145       Cu153   2.100       .  S
N146        C147   1.342       .  A
N146       Cu152   2.063       .  S
C147        C148   1.379       .  A
C147        H150   1.082       .  S
C148        C149   1.389       .  A
C148        C230   1.473       .  S
C149        H151   1.082       .  S
Cu152       N155   2.063       .  S
Cu153       N163   2.101       .  S
Cu154       N156   2.087       .  S
Cu154       N162   2.089       .  S
N155        N156   1.321       .  A
N155        C159   1.343       .  A
N156        C157   1.350       .  A
C157        C158   1.387       .  A
C157        H160   1.082       .  S
C158        C159   1.380       .  A
C158        C278   1.471       .  S
C159        H161   1.082       .  S
N162        N163   1.326       .  A
N162        C166   1.347       .  A
N163        C164   1.351       .  A
C164        C165   1.387       .  A
C164        H167   1.082       .  S
C165        C166   1.382       .  A
C165       C1984   1.479       .  S
C166        H168   1.082       .  S
N169        N170   1.321       .  A
N169        C173   1.350       .  A
N169       Cu177   2.084       .  S
N170        C171   1.342       .  A
N170       Cu176   2.065       .  S
C171        C172   1.380       .  A
C171        H174   1.082       .  S
C172        C173   1.386       .  A
C172        C244   1.471       .  S
C173        H175   1.082       .  S
Cu176       N179   2.065       .  S
Cu177       N187   2.086       .  S
Cu178       N180   2.092       .  S
Cu178       N186   2.093       .  S
N179        N180   1.322       .  A
N179        C183   1.342       .  A
N180        C181   1.351       .  A
C181        C182   1.388       .  A
C181        H184   1.082       .  S
C182        C183   1.380       .  A
C182        C268   1.473       .  S
C183        H185   1.082       .  S
N186        N187   1.326       .  A
N186        C190   1.349       .  A
N187        C188   1.346       .  A
C188        C189   1.382       .  A
C188        H191   1.082       .  S
C189        C190   1.383       .  A
C189       C1971   1.474       .  S
C190        H192   1.082       .  S
N193        N194   1.321       .  A
N193        C197   1.350       .  A
N193       Cu201   2.086       .  S
N194        C195   1.344       .  A
N194       Cu200   2.072       .  S
C195        C196   1.382       .  A
C195        H198   1.082       .  S
C196        C197   1.387       .  A
C196        C254   1.475       .  S
C197        H199   1.082       .  S
Cu200       N203   2.073       .  S
Cu201       N211   2.088       .  S
Cu202       N204   2.085       .  S
Cu202       N210   2.086       .  S
N203        N204   1.323       .  A
N203        C207   1.342       .  A
N204        C205   1.350       .  A
C205        C206   1.386       .  A
C205        H208   1.082       .  S
C206        C207   1.381       .  A
C206        C220   1.473       .  S
C207        H209   1.082       .  S
N210        N211   1.325       .  A
N210        C214   1.349       .  A
N211        C212   1.345       .  A
C212        C213   1.382       .  A
C212        H215   1.082       .  S
C213        C214   1.384       .  A
C213       C1952   1.473       .  S
C214        H216   1.082       .  S
N217        N218   1.323       .  A
N217        C221   1.350       .  A
N217       Cu225   2.088       .  S
N218        C219   1.342       .  A
N218       Cu224   2.068       .  S
C219        C220   1.380       .  A
C219        H222   1.082       .  S
C220        C221   1.387       .  A
C221        H223   1.082       .  S
Cu224       N227   2.067       .  S
Cu225       N235   2.089       .  S
Cu226       N228   2.083       .  S
Cu226       N234   2.085       .  S
N227        N228   1.321       .  A
N227        C231   1.342       .  A
N228        C229   1.350       .  A
C229        C230   1.387       .  A
C229        H232   1.082       .  S
C230        C231   1.382       .  A
C231        H233   1.082       .  S
N234        N235   1.325       .  A
N234        C238   1.346       .  A
N235        C236   1.348       .  A
C236        C237   1.383       .  A
C236        H239   1.082       .  S
C237        C238   1.381       .  A
C237       C1936   1.471       .  S
C238        H240   1.082       .  S
N241        N242   1.322       .  A
N241        C245   1.349       .  A
N241       Cu249   2.081       .  S
N242        C243   1.343       .  A
N242       Cu248   2.071       .  S
C243        C244   1.381       .  A
C243        H246   1.082       .  S
C244        C245   1.385       .  A
C245        H247   1.082       .  S
Cu248       N251   2.071       .  S
Cu249       N259   2.081       .  S
Cu250       N252   2.090       .  S
Cu250       N258   2.091       .  S
N251        N252   1.322       .  A
N251        C255   1.343       .  A
N252        C253   1.351       .  A
C253        C254   1.388       .  A
C253        H256   1.082       .  S
C254        C255   1.381       .  A
C255        H257   1.082       .  S
N258        N259   1.325       .  A
N258        C262   1.347       .  A
N259        C260   1.347       .  A
C260        C261   1.382       .  A
C260        H263   1.082       .  S
C261        C262   1.383       .  A
C261       C1920   1.472       .  S
C262        H264   1.082       .  S
N265        N266   1.324       .  A
N265        C269   1.351       .  A
N265       Cu273   2.095       .  S
N266        C267   1.342       .  A
N266       Cu272   2.073       .  S
C267        C268   1.380       .  A
C267        H270   1.082       .  S
C268        C269   1.387       .  A
C269        H271   1.082       .  S
Cu272       N275   2.073       .  S
Cu273       N283   2.096       .  S
Cu274       N276   2.076       .  S
Cu274       N282   2.078       .  S
N275        N276   1.321       .  A
N275        C279   1.344       .  A
N276        C277   1.348       .  A
C277        C278   1.384       .  A
C277        H280   1.082       .  S
C278        C279   1.383       .  A
C279        H281   1.082       .  S
N282        N283   1.324       .  A
N282        C286   1.344       .  A
N283        C284   1.350       .  A
C284        C285   1.386       .  A
C284        H287   1.082       .  S
C285        C286   1.381       .  A
C285       C1907   1.475       .  S
C286        H288   1.082       .  S
N289        N290   1.321       .  A
N289        C293   1.351       .  A
N289       Cu297   2.085       .  S
N290        C291   1.340       .  A
N290       Cu296   2.059       .  S
C291        C292   1.379       .  A
C291        H294   1.082       .  S
C292        C293   1.387       .  A
C292        C422   1.469       .  S
C293        H295   1.082       .  S
Cu296       N299   2.058       .  S
Cu297       N307   2.086       .  S
Cu298       N300   2.086       .  S
Cu298       N306   2.089       .  S
N299        N300   1.321       .  A
N299        C303   1.341       .  A
N300        C301   1.350       .  A
C301        C302   1.387       .  A
C301        H304   1.082       .  S
C302        C303   1.378       .  A
C302        C374   1.469       .  S
C303        H305   1.082       .  S
N306        N307   1.326       .  A
N306        C310   1.346       .  A
N307        C308   1.348       .  A
C308        C309   1.383       .  A
C308        H311   1.082       .  S
C309        C310   1.382       .  A
C309       C1888   1.473       .  S
C310        H312   1.082       .  S
N313        N314   1.322       .  A
N313        C317   1.348       .  A
N313       Cu321   2.080       .  S
N314        C315   1.345       .  A
N314       Cu320   2.075       .  S
C315        C316   1.382       .  A
C315        H318   1.082       .  S
C316        C317   1.384       .  A
C316        C412   1.471       .  S
C317        H319   1.082       .  S
Cu320       N323   2.076       .  S
Cu321       N331   2.081       .  S
Cu322       N324   2.094       .  S
Cu322       N330   2.095       .  S
N323        N324   1.323       .  A
N323        C327   1.344       .  A
N324        C325   1.351       .  A
C325        C326   1.387       .  A
C325        H328   1.082       .  S
C326        C327   1.382       .  A
C326        C398   1.476       .  S
C327        H329   1.082       .  S
N330        N331   1.325       .  A
N330        C334   1.349       .  A
N331        C332   1.346       .  A
C332        C333   1.383       .  A
C332        H335   1.082       .  S
C333        C334   1.385       .  A
C333       C1872   1.476       .  S
C334        H336   1.082       .  S
N337        N338   1.321       .  A
N337        C341   1.349       .  A
N337       Cu345   2.081       .  S
N338        C339   1.345       .  A
N338       Cu344   2.078       .  S
C339        C340   1.384       .  A
C339        H342   1.082       .  S
C340        C341   1.385       .  A
C340        C364   1.474       .  S
C341        H343   1.082       .  S
Cu344       N347   2.079       .  S
Cu345       N355   2.083       .  S
Cu346       N348   2.093       .  S
Cu346       N354   2.094       .  S
N347        N348   1.323       .  A
N347        C351   1.344       .  A
N348        C349   1.351       .  A
C349        C350   1.387       .  A
C349        H352   1.082       .  S
C350        C351   1.383       .  A
C350        C388   1.478       .  S
C351        H353   1.082       .  S
N354        N355   1.325       .  A
N354        C358   1.349       .  A
N355        C356   1.346       .  A
C356        C357   1.383       .  A
C356        H359   1.082       .  S
C357        C358   1.385       .  A
C357       C1859   1.475       .  S
C358        H360   1.082       .  S
N361        N362   1.323       .  A
N361        C365   1.351       .  A
N361       Cu369   2.097       .  S
N362        C363   1.343       .  A
N362       Cu368   2.068       .  S
C363        C364   1.380       .  A
C363        H366   1.082       .  S
C364        C365   1.388       .  A
C365        H367   1.082       .  S
Cu368       N371   2.067       .  S
Cu369       N379   2.098       .  S
Cu370       N372   2.079       .  S
Cu370       N378   2.081       .  S
N371        N372   1.321       .  A
N371        C375   1.342       .  A
N372        C373   1.349       .  A
C373        C374   1.385       .  A
C373        H376   1.082       .  S
C374        C375   1.381       .  A
C375        H377   1.082       .  S
N378        N379   1.325       .  A
N378        C382   1.346       .  A
N379        C380   1.350       .  A
C380        C381   1.386       .  A
C380        H383   1.082       .  S
C381        C382   1.381       .  A
C381       C1843   1.474       .  S
C382        H384   1.082       .  S
N385        N386   1.323       .  A
N385        C389   1.352       .  A
N385       Cu393   2.096       .  S
N386        C387   1.343       .  A
N386       Cu392   2.074       .  S
C387        C388   1.381       .  A
C387        H390   1.082       .  S
C388        C389   1.389       .  A
C389        H391   1.082       .  S
Cu392       N395   2.074       .  S
Cu393       N403   2.097       .  S
Cu394       N396   2.083       .  S
Cu394       N402   2.084       .  S
N395        N396   1.321       .  A
N395        C399   1.344       .  A
N396        C397   1.350       .  A
C397        C398   1.387       .  A
C397        H400   1.082       .  S
C398        C399   1.383       .  A
C399        H401   1.082       .  S
N402        N403   1.326       .  A
N402        C406   1.345       .  A
N403        C404   1.350       .  A
C404        C405   1.386       .  A
C404        H407   1.082       .  S
C405        C406   1.381       .  A
C405       C1824   1.475       .  S
C406        H408   1.082       .  S
N409        N410   1.321       .  A
N409        C413   1.349       .  A
N409       Cu417   2.086       .  S
N410        C411   1.344       .  A
N410       Cu416   2.063       .  S
C411        C412   1.380       .  A
C411        H414   1.082       .  S
C412        C413   1.386       .  A
C413        H415   1.082       .  S
Cu416       N419   2.063       .  S
Cu417       N427   2.088       .  S
Cu418       N420   2.087       .  S
Cu418       N426   2.089       .  S
N419        N420   1.323       .  A
N419        C423   1.340       .  A
N420        C421   1.351       .  A
C421        C422   1.386       .  A
C421        H424   1.082       .  S
C422        C423   1.378       .  A
C423        H425   1.082       .  S
N426        N427   1.325       .  A
N426        C430   1.349       .  A
N427        C428   1.346       .  A
C428        C429   1.383       .  A
C428        H431   1.082       .  S
C429        C430   1.384       .  A
C429       C1808   1.475       .  S
C430        H432   1.082       .  S
N433        N434   1.322       .  A
N433        C437   1.350       .  A
N433       Cu441   2.085       .  S
N434        C435   1.341       .  A
N434       Cu440   2.062       .  S
C435        C436   1.379       .  A
C435        H438   1.082       .  S
C436        C437   1.386       .  A
C436        C556   1.470       .  S
C437        H439   1.082       .  S
Cu440       N443   2.062       .  S
Cu441       N451   2.086       .  S
Cu442       N444   2.080       .  S
Cu442       N450   2.082       .  S
N443        N444   1.320       .  A
N443        C447   1.341       .  A
N444        C445   1.350       .  A
C445        C446   1.387       .  A
C445        H448   1.082       .  S
C446        C447   1.381       .  A
C446        C518   1.472       .  S
C447        H449   1.082       .  S
N450        N451   1.325       .  A
N450        C454   1.345       .  A
N451        C452   1.348       .  A
C452        C453   1.383       .  A
C452        H455   1.082       .  S
C453        C454   1.380       .  A
C453       C1795   1.469       .  S
C454        H456   1.082       .  S
N457        N458   1.320       .  A
N457        C461   1.349       .  A
N457       Cu465   2.077       .  S
N458        C459   1.342       .  A
N458       Cu464   2.061       .  S
C459        C460   1.380       .  A
C459        H462   1.082       .  S
C460        C461   1.386       .  A
C460        C566   1.469       .  S
C461        H463   1.082       .  S
Cu464       N467   2.062       .  S
Cu465       N475   2.080       .  S
Cu466       N468   2.094       .  S
Cu466       N474   2.095       .  S
N467        N468   1.322       .  A
N467        C471   1.339       .  A
N468        C469   1.353       .  A
C469        C470   1.389       .  A
C469        H472   1.082       .  S
C470        C471   1.380       .  A
C470        C542   1.475       .  S
C471        H473   1.082       .  S
N474        N475   1.325       .  A
N474        C478   1.349       .  A
N475        C476   1.344       .  A
C476        C477   1.380       .  A
C476        H479   1.082       .  S
C477        C478   1.384       .  A
C477       C1776   1.472       .  S
C478        H480   1.082       .  S
N481        N482   1.322       .  A
N481        C485   1.349       .  A
N481       Cu489   2.076       .  S
N482        C483   1.342       .  A
N482       Cu488   2.073       .  S
C483        C484   1.381       .  A
C483        H486   1.082       .  S
C484        C485   1.384       .  A
C484        C508   1.470       .  S
C485        H487   1.082       .  S
Cu488       N491   2.073       .  S
Cu489       N499   2.078       .  S
Cu490       N492   2.077       .  S
Cu490       N498   2.077       .  S
N491        N492   1.322       .  A
N491        C495   1.345       .  A
N492        C493   1.347       .  A
C493        C494   1.383       .  A
C493        H496   1.082       .  S
C494        C495   1.382       .  A
C494        C532   1.470       .  S
C495        H497   1.082       .  S
N498        N499   1.324       .  A
N498        C502   1.346       .  A
N499        C500   1.346       .  A
C500        C501   1.382       .  A
C500        H503   1.082       .  S
C501        C502   1.381       .  A
C501       C1760   1.469       .  S
C502        H504   1.082       .  S
N505        N506   1.320       .  A
N505        C509   1.350       .  A
N505       Cu513   2.080       .  S
N506        C507   1.340       .  A
N506       Cu512   2.058       .  S
C507        C508   1.379       .  A
C507        H510   1.082       .  S
C508        C509   1.387       .  A
C509        H511   1.082       .  S
Cu512       N515   2.058       .  S
Cu513       N523   2.083       .  S
Cu514       N516   2.089       .  S
Cu514       N522   2.091       .  S
N515        N516   1.322       .  A
N515        C519   1.340       .  A
N516        C517   1.351       .  A
C517        C518   1.388       .  A
C517        H520   1.082       .  S
C518        C519   1.379       .  A
C519        H521   1.082       .  S
N522        N523   1.325       .  A
N522        C526   1.349       .  A
N523        C524   1.345       .  A
C524        C525   1.380       .  A
C524        H527   1.082       .  S
C525        C526   1.384       .  A
C525       C1744   1.472       .  S
C526        H528   1.082       .  S
N529        N530   1.320       .  A
N529        C533   1.347       .  A
N529       Cu537   2.074       .  S
N530        C531   1.344       .  A
N530       Cu536   2.064       .  S
C531        C532   1.382       .  A
C531        H534   1.082       .  S
C532        C533   1.385       .  A
C533        H535   1.082       .  S
Cu536       N539   2.065       .  S
Cu537       N547   2.077       .  S
Cu538       N540   2.093       .  S
Cu538       N546   2.094       .  S
N539        N540   1.323       .  A
N539        C543   1.339       .  A
N540        C541   1.353       .  A
C541        C542   1.389       .  A
C541        H544   1.082       .  S
C542        C543   1.379       .  A
C543        H545   1.082       .  S
N546        N547   1.325       .  A
N546        C550   1.349       .  A
N547        C548   1.344       .  A
C548        C549   1.380       .  A
C548        H551   1.082       .  S
C549        C550   1.384       .  A
C549       C1731   1.473       .  S
C550        H552   1.082       .  S
N553        N554   1.322       .  A
N553        C557   1.350       .  A
N553       Cu561   2.082       .  S
N554        C555   1.341       .  A
N554       Cu560   2.064       .  S
C555        C556   1.380       .  A
C555        H558   1.082       .  S
C556        C557   1.386       .  A
C557        H559   1.082       .  S
Cu560       N563   2.063       .  S
Cu561       N571   2.083       .  S
Cu562       N564   2.080       .  S
Cu562       N570   2.082       .  S
N563        N564   1.321       .  A
N563        C567   1.342       .  A
N564        C565   1.349       .  A
C565        C566   1.386       .  A
C565        H568   1.082       .  S
C566        C567   1.380       .  A
C567        H569   1.082       .  S
N570        N571   1.325       .  A
N570        C574   1.346       .  A
N571        C572   1.346       .  A
C572        C573   1.382       .  A
C572        H575   1.082       .  S
C573        C574   1.381       .  A
C573       C1712   1.469       .  S
C574        H576   1.082       .  S
N577        N578   1.322       .  A
N577        C581   1.349       .  A
N577       Cu585   2.081       .  S
N578        C579   1.344       .  A
N578       Cu584   2.074       .  S
C579        C580   1.383       .  A
C579        H582   1.082       .  S
C580        C581   1.385       .  A
C580        C652   1.473       .  S
C581        H583   1.082       .  S
Cu584       N587   2.074       .  S
Cu585       N595   2.082       .  S
Cu586       N588   2.080       .  S
Cu586       N594   2.081       .  S
N587        N588   1.323       .  A
N587        C591   1.343       .  A
N588        C589   1.349       .  A
C589        C590   1.383       .  A
C589        H592   1.082       .  S
C590        C591   1.381       .  A
C590        C700   1.468       .  S
C591        H593   1.082       .  S
N594        N595   1.324       .  A
N594        C598   1.346       .  A
N595        C596   1.347       .  A
C596        C597   1.383       .  A
C596        H599   1.082       .  S
C597        C598   1.381       .  A
C597       C1696   1.469       .  S
C598        H600   1.082       .  S
N601        N602   1.324       .  A
N601        C605   1.351       .  A
N601       Cu609   2.099       .  S
N602        C603   1.343       .  A
N602       Cu608   2.069       .  S
C603        C604   1.379       .  A
C603        H606   1.082       .  S
C604        C605   1.388       .  A
C604        C676   1.473       .  S
C605        H607   1.082       .  S
Cu608       N611   2.068       .  S
Cu609       N619   2.099       .  S
Cu610       N612   2.068       .  S
Cu610       N618   2.069       .  S
N611        N612   1.321       .  A
N611        C615   1.346       .  A
N612        C613   1.344       .  A
C613        C614   1.382       .  A
C613        H616   1.082       .  S
C614        C615   1.382       .  A
C614        C710   1.466       .  S
C615        H617   1.082       .  S
N618        N619   1.324       .  A
N618        C622   1.343       .  A
N619        C620   1.350       .  A
C620        C621   1.387       .  A
C620        H623   1.082       .  S
C621        C622   1.380       .  A
C621       C1683   1.474       .  S
C622        H624   1.082       .  S
N625        N626   1.322       .  A
N625        C629   1.352       .  A
N625       Cu633   2.097       .  S
N626        C627   1.341       .  A
N626       Cu632   2.060       .  S
C627        C628   1.378       .  A
C627        H630   1.082       .  S
C628        C629   1.389       .  A
C628        C686   1.474       .  S
C629        H631   1.082       .  S
Cu632       N635   2.059       .  S
Cu633       N643   2.099       .  S
Cu634       N636   2.086       .  S
Cu634       N642   2.089       .  S
N635        N636   1.320       .  A
N635        C639   1.341       .  A
N636        C637   1.351       .  A
C637        C638   1.388       .  A
C637        H640   1.082       .  S
C638        C639   1.380       .  A
C638        C662   1.473       .  S
C639        H641   1.082       .  S
N642        N643   1.326       .  A
N642        C646   1.346       .  A
N643        C644   1.350       .  A
C644        C645   1.386       .  A
C644        H647   1.082       .  S
C645        C646   1.381       .  A
C645       C1667   1.475       .  S
C646        H648   1.082       .  S
N649        N650   1.323       .  A
N649        C653   1.350       .  A
N649       Cu657   2.092       .  S
N650        C651   1.343       .  A
N650       Cu656   2.068       .  S
C651        C652   1.380       .  A
C651        H654   1.082       .  S
C652        C653   1.387       .  A
C653        H655   1.082       .  S
Cu656       N659   2.068       .  S
Cu657       N667   2.093       .  S
Cu658       N660   2.084       .  S
Cu658       N666   2.086       .  S
N659        N660   1.321       .  A
N659        C663   1.342       .  A
N660        C661   1.350       .  A
C661        C662   1.387       .  A
C661        H664   1.082       .  S
C662        C663   1.381       .  A
C663        H665   1.082       .  S
N666        N667   1.325       .  A
N666        C670   1.347       .  A
N667        C668   1.348       .  A
C668        C669   1.384       .  A
C668        H671   1.082       .  S
C669        C670   1.382       .  A
C669       C1651   1.474       .  S
C670        H672   1.082       .  S
N673        N674   1.323       .  A
N673        C677   1.351       .  A
N673       Cu681   2.090       .  S
N674        C675   1.343       .  A
N674       Cu680   2.074       .  S
C675        C676   1.381       .  A
C675        H678   1.082       .  S
C676        C677   1.386       .  A
C677        H679   1.082       .  S
Cu680       N683   2.073       .  S
Cu681       N691   2.091       .  S
Cu682       N684   2.074       .  S
Cu682       N690   2.076       .  S
N683        N684   1.321       .  A
N683        C687   1.343       .  A
N684        C685   1.349       .  A
C685        C686   1.385       .  A
C685        H688   1.082       .  S
C686        C687   1.383       .  A
C687        H689   1.082       .  S
N690        N691   1.325       .  A
N690        C694   1.344       .  A
N691        C692   1.349       .  A
C692        C693   1.384       .  A
C692        H695   1.082       .  S
C693        C694   1.381       .  A
C693       C1632   1.471       .  S
C694        H696   1.082       .  S
N697        N698   1.322       .  A
N697        C701   1.350       .  A
N697       Cu705   2.087       .  S
N698        C699   1.342       .  A
N698       Cu704   2.059       .  S
C699        C700   1.378       .  A
C699        H702   1.082       .  S
C700        C701   1.386       .  A
C701        H703   1.082       .  S
Cu704       N707   2.058       .  S
Cu705       N715   2.089       .  S
Cu706       N708   2.082       .  S
Cu706       N714   2.084       .  S
N707        N708   1.322       .  A
N707        C711   1.343       .  A
N708        C709   1.347       .  A
C709        C710   1.384       .  A
C709        H712   1.082       .  S
C710        C711   1.379       .  A
C711        H713   1.082       .  S
N714        N715   1.325       .  A
N714        C718   1.347       .  A
N715        C716   1.347       .  A
C716        C717   1.384       .  A
C716        H719   1.082       .  S
C717        C718   1.382       .  A
C717       C1619   1.473       .  S
C718        H720   1.082       .  S
N721        N722   1.320       .  A
N721        C725   1.351       .  A
N721       Cu729   2.090       .  S
N722        C723   1.342       .  A
N722       Cu728   2.057       .  S
C723        C724   1.379       .  A
C723        H726   1.082       .  S
C724        C725   1.389       .  A
C724        C854   1.472       .  S
C725        H727   1.082       .  S
Cu728       N731   2.057       .  S
Cu729       N739   2.093       .  S
Cu730       N732   2.094       .  S
Cu730       N738   2.096       .  S
N731        N732   1.321       .  A
N731        C735   1.339       .  A
N732        C733   1.353       .  A
C733        C734   1.390       .  A
C733        H736   1.082       .  S
C734        C735   1.378       .  A
C734        C806   1.474       .  S
C735        H737   1.082       .  S
N738        N739   1.327       .  A
N738        C742   1.348       .  A
N739        C740   1.347       .  A
C740        C741   1.382       .  A
C740        H743   1.082       .  S
C741        C742   1.384       .  A
C741       C1600   1.476       .  S
C742        H744   1.082       .  S
N745        N746   1.320       .  A
N745        C749   1.351       .  A
N745       Cu753   2.089       .  S
N746        C747   1.343       .  A
N746       Cu752   2.063       .  S
C747        C748   1.381       .  A
C747        H750   1.082       .  S
C748        C749   1.388       .  A
C748        C844   1.473       .  S
C749        H751   1.082       .  S
Cu752       N755   2.063       .  S
Cu753       N763   2.092       .  S
Cu754       N756   2.093       .  S
Cu754       N762   2.095       .  S
N755        N756   1.322       .  A
N755        C759   1.340       .  A
N756        C757   1.352       .  A
C757        C758   1.388       .  A
C757        H760   1.082       .  S
C758        C759   1.379       .  A
C758        C830   1.473       .  S
C759        H761   1.082       .  S
N762        N763   1.326       .  A
N762        C766   1.349       .  A
N763        C764   1.347       .  A
C764        C765   1.384       .  A
C764        H767   1.082       .  S
C765        C766   1.384       .  A
C765       C1587   1.477       .  S
C766        H768   1.082       .  S
N769        N770   1.322       .  A
N769        C773   1.349       .  A
N769       Cu777   2.077       .  S
N770        C771   1.345       .  A
N770       Cu776   2.085       .  S
C771        C772   1.384       .  A
C771        H774   1.082       .  S
C772        C773   1.383       .  A
C772        C820   1.473       .  S
C773        H775   1.082       .  S
Cu776       N779   2.085       .  S
Cu777       N787   2.078       .  S
Cu778       N780   2.087       .  S
Cu778       N786   2.089       .  S
N779        N780   1.323       .  A
N779        C783   1.346       .  A
N780        C781   1.349       .  A
C781        C782   1.385       .  A
C781        H784   1.082       .  S
C782        C783   1.383       .  A
C782        C796   1.475       .  S
C783        H785   1.082       .  S
N786        N787   1.324       .  A
N786        C790   1.349       .  A
N787        C788   1.344       .  A
C788        C789   1.383       .  A
C788        H791   1.082       .  S
C789        C790   1.385       .  A
C789       C1568   1.475       .  S
C790        H792   1.082       .  S
N793        N794   1.320       .  A
N793        C797   1.350       .  A
N793       Cu801   2.089       .  S
N794        C795   1.344       .  A
N794       Cu800   2.065       .  S
C795        C796   1.381       .  A
C795        H798   1.082       .  S
C796        C797   1.388       .  A
C797        H799   1.082       .  S
Cu800       N803   2.066       .  S
Cu801       N811   2.092       .  S
Cu802       N804   2.089       .  S
Cu802       N810   2.091       .  S
N803        N804   1.322       .  A
N803        C807   1.340       .  A
N804        C805   1.352       .  A
C805        C806   1.388       .  A
C805        H808   1.082       .  S
C806        C807   1.380       .  A
C807        H809   1.082       .  S
N810        N811   1.325       .  A
N810        C814   1.349       .  A
N811        C812   1.346       .  A
C812        C813   1.384       .  A
C812        H815   1.082       .  S
C813        C814   1.384       .  A
C813       C1552   1.476       .  S
C814        H816   1.082       .  S
N817        N818   1.322       .  A
N817        C821   1.351       .  A
N817       Cu825   2.097       .  S
N818        C819   1.342       .  A
N818       Cu824   2.061       .  S
C819        C820   1.378       .  A
C819        H822   1.082       .  S
C820        C821   1.389       .  A
C821        H823   1.082       .  S
Cu824       N827   2.061       .  S
Cu825       N835   2.098       .  S
Cu826       N828   2.086       .  S
Cu826       N834   2.089       .  S
N827        N828   1.320       .  A
N827        C831   1.340       .  A
N828        C829   1.352       .  A
C829        C830   1.388       .  A
C829        H832   1.082       .  S
C830        C831   1.380       .  A
C831        H833   1.082       .  S
N834        N835   1.326       .  A
N834        C838   1.346       .  A
N835        C836   1.350       .  A
C836        C837   1.385       .  A
C836        H839   1.082       .  S
C837        C838   1.383       .  A
C837       C1536   1.477       .  S
C838        H840   1.082       .  S
N841        N842   1.323       .  A
N841        C845   1.351       .  A
N841       Cu849   2.091       .  S
N842        C843   1.343       .  A
N842       Cu848   2.072       .  S
C843        C844   1.381       .  A
C843        H846   1.082       .  S
C844        C845   1.387       .  A
C845        H847   1.082       .  S
Cu848       N851   2.071       .  S
Cu849       N859   2.092       .  S
Cu850       N852   2.086       .  S
Cu850       N858   2.088       .  S
N851        N852   1.322       .  A
N851        C855   1.343       .  A
N852        C853   1.350       .  A
C853        C854   1.386       .  A
C853        H856   1.082       .  S
C854        C855   1.381       .  A
C855        H857   1.082       .  S
N858        N859   1.325       .  A
N858        C862   1.348       .  A
N859        C860   1.348       .  A
C860        C861   1.384       .  A
C860        H863   1.082       .  S
C861        C862   1.384       .  A
C861       C1520   1.476       .  S
C862        H864   1.082       .  S
N865        N866   1.322       .  A
N865        C869   1.351       .  A
N865       Cu873   2.097       .  S
N866        C867   1.343       .  A
N866       Cu872   2.064       .  S
C867        C868   1.380       .  A
C867        H870   1.082       .  S
C868        C869   1.389       .  A
C868        C998   1.475       .  S
C869        H871   1.082       .  S
Cu872       N875   2.064       .  S
Cu873       N883   2.098       .  S
Cu874       N876   2.091       .  S
Cu874       N882   2.094       .  S
N875        N876   1.322       .  A
N875        C879   1.341       .  A
N876        C877   1.351       .  A
C877        C878   1.388       .  A
C877        H880   1.082       .  S
C878        C879   1.380       .  A
C878        C950   1.473       .  S
C879        H881   1.082       .  S
N882        N883   1.326       .  A
N882        C886   1.349       .  A
N883        C884   1.348       .  A
C884        C885   1.384       .  A
C884        H887   1.082       .  S
C885        C886   1.384       .  A
C885       C1507   1.478       .  S
C886        H888   1.082       .  S
N889        N890   1.320       .  A
N889        C893   1.348       .  A
N889       Cu897   2.071       .  S
N890        C891   1.342       .  A
N890       Cu896   2.063       .  S
C891        C892   1.380       .  A
C891        H894   1.082       .  S
C892        C893   1.383       .  A
C892        C974   1.465       .  S
C893        H895   1.082       .  S
Cu896       N899   2.063       .  S
Cu897       N907   2.073       .  S
Cu898       N900   2.098       .  S
Cu898       N906   2.099       .  S
N899        N900   1.323       .  A
N899        C903   1.342       .  A
N900        C901   1.351       .  A
C901        C902   1.389       .  A
C901        H904   1.082       .  S
C902        C903   1.379       .  A
C902        C988   1.474       .  S
C903        H905   1.082       .  S
N906        N907   1.325       .  A
N906        C910   1.349       .  A
N907        C908   1.344       .  A
C908        C909   1.381       .  A
C908        H911   1.082       .  S
C909        C910   1.386       .  A
C909       C1491   1.474       .  S
C910        H912   1.082       .  S
N913        N914   1.323       .  A
N913        C917   1.349       .  A
N913       Cu921   2.078       .  S
N914        C915   1.342       .  A
N914       Cu920   2.074       .  S
C915        C916   1.381       .  A
C915        H918   1.082       .  S
C916        C917   1.384       .  A
C916        C964   1.470       .  S
C917        H919   1.082       .  S
Cu920       N923   2.073       .  S
Cu921       N931   2.079       .  S
Cu922       N924   2.077       .  S
Cu922       N930   2.078       .  S
N923        N924   1.321       .  A
N923        C927   1.344       .  A
N924        C925   1.348       .  A
C925        C926   1.385       .  A
C925        H928   1.082       .  S
C926        C927   1.382       .  A
C926        C940   1.472       .  S
C927        H929   1.082       .  S
N930        N931   1.324       .  A
N930        C934   1.345       .  A
N931        C932   1.346       .  A
C932        C933   1.382       .  A
C932        H935   1.082       .  S
C933        C934   1.381       .  A
C933       C1475   1.468       .  S
C934        H936   1.082       .  S
N937        N938   1.321       .  A
N937        C941   1.349       .  A
N937       Cu945   2.084       .  S
N938        C939   1.343       .  A
N938       Cu944   2.067       .  S
C939        C940   1.381       .  A
C939        H942   1.082       .  S
C940        C941   1.386       .  A
C941        H943   1.082       .  S
Cu944       N947   2.068       .  S
Cu945       N955   2.086       .  S
Cu946       N948   2.093       .  S
Cu946       N954   2.094       .  S
N947        N948   1.323       .  A
N947        C951   1.342       .  A
N948        C949   1.351       .  A
C949        C950   1.387       .  A
C949        H952   1.082       .  S
C950        C951   1.380       .  A
C951        H953   1.082       .  S
N954        N955   1.325       .  A
N954        C958   1.350       .  A
N955        C956   1.345       .  A
C956        C957   1.382       .  A
C956        H959   1.082       .  S
C957        C958   1.386       .  A
C957       C1456   1.475       .  S
C958        H960   1.082       .  S
N961        N962   1.322       .  A
N961        C965   1.350       .  A
N961       Cu969   2.090       .  S
N962        C963   1.340       .  A
N962       Cu968   2.056       .  S
C963        C964   1.378       .  A
C963        H966   1.082       .  S
C964        C965   1.387       .  A
C965        H967   1.082       .  S
Cu968       N971   2.055       .  S
Cu969       N979   2.091       .  S
Cu970       N972   2.080       .  S
Cu970       N978   2.083       .  S
N971        N972   1.321       .  A
N971        C975   1.341       .  A
N972        C973   1.349       .  A
C973        C974   1.385       .  A
C973        H976   1.082       .  S
C974        C975   1.378       .  A
C975        H977   1.082       .  S
N978        N979   1.325       .  A
N978        C982   1.346       .  A
N979        C980   1.348       .  A
C980        C981   1.383       .  A
C980        H983   1.082       .  S
C981        C982   1.382       .  A
C981       C1440   1.473       .  S
C982        H984   1.082       .  S
N985        N986   1.323       .  A
N985        C989   1.350       .  A
N985       Cu993   2.082       .  S
N986        C987   1.343       .  A
N986       Cu992   2.081       .  S
C987        C988   1.383       .  A
C987        H990   1.082       .  S
C988        C989   1.385       .  A
C989        H991   1.082       .  S
Cu992       N995   2.080       .  S
Cu993      N1003   2.082       .  S
Cu994       N996   2.078       .  S
Cu994      N1002   2.079       .  S
N995        N996   1.321       .  A
N995        C999   1.345       .  A
N996        C997   1.349       .  A
C997        C998   1.385       .  A
C997       H1000   1.082       .  S
C998        C999   1.384       .  A
C999       H1001   1.082       .  S
N1002      N1003   1.324       .  A
N1002      C1006   1.344       .  A
N1003      C1004   1.347       .  A
C1004      C1005   1.382       .  A
C1004      H1007   1.082       .  S
C1005      C1006   1.382       .  A
C1005      C1424   1.471       .  S
C1006      H1008   1.082       .  S
N1009      N1010   1.322       .  A
N1009      C1013   1.350       .  A
N1009     Cu1017   2.088       .  S
N1010      C1011   1.343       .  A
N1010     Cu1016   2.063       .  S
C1011      C1012   1.379       .  A
C1011      H1014   1.082       .  S
C1012      C1013   1.386       .  A
C1012      C1118   1.468       .  S
C1013      H1015   1.082       .  S
Cu1016     N1019   2.064       .  S
Cu1017     N1027   2.089       .  S
Cu1018     N1020   2.080       .  S
Cu1018     N1026   2.082       .  S
N1019      N1020   1.321       .  A
N1019      C1023   1.342       .  A
N1020      C1021   1.348       .  A
C1021      C1022   1.385       .  A
C1021      H1024   1.082       .  S
C1022      C1023   1.380       .  A
C1022      C1142   1.469       .  S
C1023      H1025   1.082       .  S
N1026      N1027   1.325       .  A
N1026      C1030   1.346       .  A
N1027      C1028   1.347       .  A
C1028      C1029   1.382       .  A
C1028      H1031   1.082       .  S
C1029      C1030   1.383       .  A
C1029      C1408   1.472       .  S
C1030      H1032   1.082       .  S
N1033      N1034   1.322       .  A
N1033      C1037   1.352       .  A
N1033     Cu1041   2.093       .  S
N1034      C1035   1.340       .  A
N1034     Cu1040   2.062       .  S
C1035      C1036   1.379       .  A
C1035      H1038   1.082       .  S
C1036      C1037   1.390       .  A
C1036      C1084   1.475       .  S
C1037      H1039   1.082       .  S
Cu1040     N1043   2.061       .  S
Cu1041     N1051   2.094       .  S
Cu1042     N1044   2.084       .  S
Cu1042     N1050   2.087       .  S
N1043      N1044   1.321       .  A
N1043      C1047   1.343       .  A
N1044      C1045   1.349       .  A
C1045      C1046   1.387       .  A
C1045      H1048   1.082       .  S
C1046      C1047   1.380       .  A
C1046      C1132   1.470       .  S
C1047      H1049   1.082       .  S
N1050      N1051   1.326       .  A
N1050      C1054   1.348       .  A
N1051      C1052   1.347       .  A
C1052      C1053   1.382       .  A
C1052      H1055   1.082       .  S
C1053      C1054   1.382       .  A
C1053      C1392   1.472       .  S
C1054      H1056   1.082       .  S
N1057      N1058   1.323       .  A
N1057      C1061   1.349       .  A
N1057     Cu1065   2.088       .  S
N1058      C1059   1.346       .  A
N1058     Cu1064   2.079       .  S
C1059      C1060   1.383       .  A
C1059      H1062   1.082       .  S
C1060      C1061   1.385       .  A
C1060      C1094   1.473       .  S
C1061      H1063   1.082       .  S
Cu1064     N1067   2.078       .  S
Cu1065     N1075   2.089       .  S
Cu1066     N1068   2.086       .  S
Cu1066     N1074   2.086       .  S
N1067      N1068   1.323       .  A
N1067      C1071   1.347       .  A
N1068      C1069   1.347       .  A
C1069      C1070   1.385       .  A
C1069      H1072   1.082       .  S
C1070      C1071   1.383       .  A
C1070      C1108   1.474       .  S
C1071      H1073   1.082       .  S
N1074      N1075   1.324       .  A
N1074      C1078   1.348       .  A
N1075      C1076   1.347       .  A
C1076      C1077   1.385       .  A
C1076      H1079   1.082       .  S
C1077      C1078   1.384       .  A
C1077      C1376   1.477       .  S
C1078      H1080   1.082       .  S
N1081      N1082   1.321       .  A
N1081      C1085   1.351       .  A
N1081     Cu1089   2.081       .  S
N1082      C1083   1.342       .  A
N1082     Cu1088   2.074       .  S
C1083      C1084   1.382       .  A
C1083      H1086   1.082       .  S
C1084      C1085   1.387       .  A
C1085      H1087   1.082       .  S
Cu1088     N1091   2.074       .  S
Cu1089     N1099   2.083       .  S
Cu1090     N1092   2.092       .  S
Cu1090     N1098   2.092       .  S
N1091      N1092   1.323       .  A
N1091      C1095   1.345       .  A
N1092      C1093   1.350       .  A
C1093      C1094   1.386       .  A
C1093      H1096   1.082       .  S
C1094      C1095   1.381       .  A
C1095      H1097   1.082       .  S
N1098      N1099   1.325       .  A
N1098      C1102   1.349       .  A
N1099      C1100   1.345       .  A
C1100      C1101   1.381       .  A
C1100      H1103   1.082       .  S
C1101      C1102   1.384       .  A
C1101      C1363   1.471       .  S
C1102      H1104   1.082       .  S
N1105      N1106   1.324       .  A
N1105      C1109   1.348       .  A
N1105     Cu1113   2.090       .  S
N1106      C1107   1.346       .  A
N1106     Cu1112   2.081       .  S
C1107      C1108   1.382       .  A
C1107      H1110   1.082       .  S
C1108      C1109   1.385       .  A
C1109      H1111   1.082       .  S
Cu1112     N1115   2.081       .  S
Cu1113     N1123   2.089       .  S
Cu1114     N1116   2.075       .  S
Cu1114     N1122   2.075       .  S
N1115      N1116   1.322       .  A
N1115      C1119   1.348       .  A
N1116      C1117   1.344       .  A
C1117      C1118   1.382       .  A
C1117      H1120   1.082       .  S
C1118      C1119   1.384       .  A
C1119      H1121   1.082       .  S
N1122      N1123   1.323       .  A
N1122      C1126   1.346       .  A
N1123      C1124   1.348       .  A
C1124      C1125   1.386       .  A
C1124      H1127   1.082       .  S
C1125      C1126   1.382       .  A
C1125      C1347   1.474       .  S
C1126      H1128   1.082       .  S
N1129      N1130   1.321       .  A
N1129      C1133   1.347       .  A
N1129     Cu1137   2.074       .  S
N1130      C1131   1.345       .  A
N1130     Cu1136   2.075       .  S
C1131      C1132   1.383       .  A
C1131      H1134   1.082       .  S
C1132      C1133   1.383       .  A
C1133      H1135   1.082       .  S
Cu1136     N1139   2.075       .  S
Cu1137     N1147   2.076       .  S
Cu1138     N1140   2.081       .  S
Cu1138     N1146   2.080       .  S
N1139      N1140   1.324       .  A
N1139      C1143   1.343       .  A
N1140      C1141   1.348       .  A
C1141      C1142   1.383       .  A
C1141      H1144   1.082       .  S
C1142      C1143   1.381       .  A
C1143      H1145   1.082       .  S
N1146      N1147   1.323       .  A
N1146      C1150   1.348       .  A
N1147      C1148   1.345       .  A
C1148      C1149   1.381       .  A
C1148      H1151   1.082       .  S
C1149      C1150   1.383       .  A
C1149      C1331   1.469       .  S
C1150      H1152   1.082       .  S
O1153     Cu1161   2.011       .  S
O1153      C1163   1.278       .  A
O1154     Cu1161   2.027       .  S
O1154      C1164   1.280       .  A
O1155     Cu1161   2.015       .  S
O1155      C1165   1.278       .  A
O1156     Cu1161   2.015       .  S
O1156      C1166   1.278       .  A
O1157     Cu1162   2.022       .  S
O1157      C1166   1.279       .  A
O1158     Cu1162   2.020       .  S
O1158      C1165   1.278       .  A
O1159     Cu1162   2.012       .  S
O1159      C1164   1.277       .  A
O1160     Cu1162   2.033       .  S
O1160      C1163   1.279       .  A
Cu1161    Cu1162   2.372       .  S
C1163      C1459   1.476       .  S
C1164      C1648   1.473       .  S
C1165      C1328   1.472       .  S
C1166      C1555   1.473       .  S
O1167     Cu1175   2.027       .  S
O1167      C1177   1.279       .  A
O1168     Cu1175   2.012       .  S
O1168      C1178   1.278       .  A
O1169     Cu1175   2.017       .  S
O1169      C1179   1.278       .  A
O1170     Cu1175   2.012       .  S
O1170      C1180   1.278       .  A
O1171     Cu1176   2.023       .  S
O1171      C1180   1.279       .  A
O1172     Cu1176   2.024       .  S
O1172      C1179   1.279       .  A
O1173     Cu1176   2.026       .  S
O1173      C1178   1.278       .  A
O1174     Cu1176   2.009       .  S
O1174      C1177   1.277       .  A
Cu1175    Cu1176   2.371       .  S
C1177      C1344   1.473       .  S
C1178      C1827   1.471       .  S
C1179      C1904   1.474       .  S
C1180      C1616   1.474       .  S
O1181     Cu1189   2.020       .  S
O1181      C1191   1.278       .  A
O1182     Cu1189   2.022       .  S
O1182      C1192   1.279       .  A
O1183     Cu1189   2.024       .  S
O1183      C1193   1.279       .  A
O1184     Cu1189   2.004       .  S
O1184      C1194   1.276       .  A
O1185     Cu1190   2.028       .  S
O1185      C1194   1.280       .  A
O1186     Cu1190   2.013       .  S
O1186      C1193   1.277       .  A
O1187     Cu1190   2.011       .  S
O1187      C1192   1.277       .  A
O1188     Cu1190   2.009       .  S
O1188      C1191   1.277       .  A
Cu1189    Cu1190   2.373       .  S
C1191      C1923   1.470       .  S
C1192      C1443   1.470       .  S
C1193      C2000   1.473       .  S
C1194      C1360   1.471       .  S
O1195     Cu1203   2.022       .  S
O1195      C1205   1.278       .  A
O1196     Cu1203   2.019       .  S
O1196      C1206   1.278       .  A
O1197     Cu1203   2.021       .  S
O1197      C1207   1.278       .  A
O1198     Cu1203   2.022       .  S
O1198      C1208   1.278       .  A
O1199     Cu1204   2.014       .  S
O1199      C1208   1.278       .  A
O1200     Cu1204   2.017       .  S
O1200      C1207   1.277       .  A
O1201     Cu1204   2.005       .  S
O1201      C1206   1.276       .  A
O1202     Cu1204   2.009       .  S
O1202      C1205   1.277       .  A
Cu1203    Cu1204   2.365       .  S
C1205      C1747   1.469       .  S
C1206      C1427   1.467       .  S
C1207      C1539   1.470       .  S
C1208      C2019   1.471       .  S
O1209     Cu1217   2.026       .  S
O1209      C1219   1.279       .  A
O1210     Cu1217   2.027       .  S
O1210      C1220   1.280       .  A
O1211     Cu1217   2.025       .  S
O1211      C1221   1.279       .  A
O1212     Cu1217   2.005       .  S
O1212      C1222   1.276       .  A
O1213     Cu1218   2.022       .  S
O1213      C1222   1.279       .  A
O1214     Cu1218   2.003       .  S
O1214      C1221   1.276       .  A
O1215     Cu1218   2.012       .  S
O1215      C1220   1.277       .  A
O1216     Cu1218   2.014       .  S
O1216      C1219   1.277       .  A
Cu1217    Cu1218   2.374       .  S
C1219      C1811   1.473       .  S
C1220      C1523   1.472       .  S
C1221      C1635   1.468       .  S
C1222      C1715   1.470       .  S
O1223     Cu1231   2.023       .  S
O1223      C1233   1.278       .  A
O1224     Cu1231   2.019       .  S
O1224      C1234   1.278       .  A
O1225     Cu1231   2.031       .  S
O1225      C1235   1.280       .  A
O1226     Cu1231   2.014       .  S
O1226      C1236   1.277       .  A
O1227     Cu1232   2.020       .  S
O1227      C1236   1.279       .  A
O1228     Cu1232   2.002       .  S
O1228      C1235   1.276       .  A
O1229     Cu1232   2.014       .  S
O1229      C1234   1.278       .  A
O1230     Cu1232   2.017       .  S
O1230      C1233   1.279       .  A
Cu1231    Cu1232   2.373       .  S
C1233      C1840   1.474       .  S
C1234      C2035   1.469       .  S
C1235      C1728   1.471       .  S
C1236      C1939   1.472       .  S
O1237     Cu1245   2.015       .  S
O1237      C1247   1.277   1_565  A
O1238     Cu1245   2.032   1_455  S
O1238      C1248   1.280       .  A
O1239     Cu1245   2.014       .  S
O1239      C1249   1.277       .  A
O1240     Cu1245   2.032   1_455  S
O1240      C1250   1.280   1_565  A
O1241     Cu1246   2.012   1_445  S
O1241      C1250   1.277       .  A
O1242     Cu1246   2.031       .  S
O1242      C1249   1.280       .  A
O1243     Cu1246   2.000   1_455  S
O1243      C1248   1.276       .  A
O1244     Cu1246   2.017       .  S
O1244      C1247   1.278   1_565  A
Cu1245    Cu1246   2.375       .  S
C1247      C1488   1.469       .  S
C1248      C1680   1.472       .  S
C1249      C1584   1.474       .  S
C1250      C1379   1.476       .  S
O1251     Cu1259   2.014       .  S
O1251      C1261   1.277       .  A
O1252     Cu1259   2.011   1_455  S
O1252      C1262   1.277       .  A
O1253     Cu1259   2.039   1_455  S
O1253      C1263   1.281       .  A
O1254     Cu1259   2.020       .  S
O1254      C1264   1.278       .  A
O1255     Cu1260   2.024       .  S
O1255      C1264   1.279       .  A
O1256     Cu1260   2.007   1_455  S
O1256      C1263   1.276       .  A
O1257     Cu1260   2.018   1_455  S
O1257      C1262   1.278       .  A
O1258     Cu1260   2.018       .  S
O1258      C1261   1.279       .  A
Cu1259    Cu1260   2.373       .  S
C1261      C1792   1.470       .  S
C1262      C1968   1.469   1_565  S
C1263      C1875   1.475       .  S
C1264      C2064   1.474   1_565  S
O1265     Cu1273   2.020       .  S
O1265      C1275   1.279       .  A
O1266     Cu1273   2.021   1_545  S
O1266      C1276   1.279       .  A
O1267     Cu1273   1.998       .  S
O1267      C1277   1.275       .  A
O1268     Cu1273   2.016   1_545  S
O1268      C1278   1.277       .  A
O1269     Cu1274   2.015   1_545  S
O1269      C1278   1.279       .  A
O1270     Cu1274   2.036       .  S
O1270      C1277   1.280       .  A
O1271     Cu1274   2.016   1_545  S
O1271      C1276   1.277       .  A
O1272     Cu1274   2.018       .  S
O1272      C1275   1.278       .  A
Cu1273    Cu1274   2.373       .  S
C1275      C1664   1.473       .  S
C1276      C1955   1.472   1_554  S
C1277      C1891   1.470   1_554  S
C1278      C1395   1.472       .  S
O1279     Cu1287   2.025   1_456  S
O1279      C1289   1.278       .  A
O1280     Cu1287   2.025       .  S
O1280      C1290   1.279       .  A
O1281     Cu1287   2.010   1_455  S
O1281      C1291   1.277       .  A
O1282     Cu1287   2.030   1_556  S
O1282      C1292   1.279       .  A
O1283     Cu1288   2.002   1_556  S
O1283      C1292   1.276       .  A
O1284     Cu1288   2.020       .  S
O1284      C1291   1.279   1_655  A
O1285     Cu1288   2.025       .  S
O1285      C1290   1.279       .  A
O1286     Cu1288   2.023   1_456  S
O1286      C1289   1.279       .  A
Cu1287    Cu1288   2.372       .  S
C1289      C1987   1.475       .  S
C1290      C1504   1.477       .  S
C1291      C1411   1.470       .  S
C1292      C2051   1.470       .  S
O1293     Cu1301   2.020       .  S
O1293      C1303   1.279       .  A
O1294     Cu1301   2.000       .  S
O1294      C1304   1.276   1_565  A
O1295     Cu1301   2.019       .  S
O1295      C1305   1.279       .  A
O1296     Cu1301   2.003       .  S
O1296      C1306   1.276   1_565  A
O1297     Cu1302   2.037       .  S
O1297      C1306   1.281   1_565  A
O1298     Cu1302   2.020       .  S
O1298      C1305   1.278       .  A
O1299     Cu1302   2.020       .  S
O1299      C1304   1.278   1_565  A
O1300     Cu1302   2.006       .  S
O1300      C1303   1.276       .  A
Cu1301    Cu1302   2.376       .  S
C1303      C1779   1.468   1_554  S
C1304      C1472   1.464       .  S
C1305      C1603   1.472       .  S
C1306      C2080   1.474   1_554  S
O1307     Cu1315   2.013       .  S
O1307      C1317   1.277       .  A
O1308     Cu1315   2.030   1_455  S
O1308      C1318   1.280   1_554  A
O1309     Cu1315   2.015   1_455  S
O1309      C1319   1.278       .  A
O1310     Cu1315   2.015       .  S
O1310      C1320   1.278   1_554  A
O1311     Cu1316   2.010   1_556  S
O1311      C1320   1.277       .  A
O1312     Cu1316   2.009   1_455  S
O1312      C1319   1.277       .  A
O1313     Cu1316   2.008   1_455  S
O1313      C1318   1.276   1_554  A
O1314     Cu1316   2.027       .  S
O1314      C1317   1.279       .  A
Cu1315    Cu1316   2.373       .  S
C1317      C1571   1.470       .  S
C1318      C1856   1.472       .  S
C1319      C1699   1.468       .  S
C1320      C1763   1.467       .  S
C1321      C1326   1.380       .  A
C1321      C1322   1.405       .  A
C1321      O1327   1.320       .  A
C1322      C1323   1.404       .  A
C1322      H1333   1.082       .  S
C1323      C1332   1.365       .  A
C1323      C1324   1.381       .  A
C1324      C1325   1.404       .  A
C1324      O1330   1.318       .  A
C1325      C1326   1.403       .  A
C1325      H1334   1.082       .  S
C1326      C1329   1.363       .  A
O1327      C1328   1.332       .  A
C1328      C1329   1.391       .  A
C1329      H1335   1.082       .  S
O1330      C1331   1.330       .  A
C1331      C1332   1.391       .  A
C1332      H1336   1.082       .  S
C1337      C1342   1.380       .  A
C1337      C1338   1.406       .  A
C1337      O1343   1.322       .  A
C1338      C1339   1.405       .  A
C1338      H1349   1.082       .  S
C1339      C1348   1.365       .  A
C1339      C1340   1.380       .  A
C1340      C1341   1.404       .  A
C1340      O1346   1.320       .  A
C1341      C1342   1.403       .  A
C1341      H1350   1.082       .  S
C1342      C1345   1.362       .  A
O1343      C1344   1.332       .  A
C1344      C1345   1.391       .  A
C1345      H1351   1.083       .  S
O1346      C1347   1.331       .  A
C1347      C1348   1.392       .  A
C1348      H1352   1.082       .  S
C1353      C1358   1.380       .  A
C1353      C1354   1.407       .  A
C1353      O1359   1.320       .  A
C1354      C1355   1.405       .  A
C1354      H1365   1.082       .  S
C1355      C1364   1.366       .  A
C1355      C1356   1.381       .  A
C1356      C1357   1.403       .  A
C1356      O1362   1.318       .  A
C1357      C1358   1.402       .  A
C1357      H1366   1.082       .  S
C1358      C1361   1.363       .  A
O1359      C1360   1.332       .  A
C1360      C1361   1.390       .  A
C1361      H1367   1.082       .  S
O1362      C1363   1.330       .  A
C1363      C1364   1.392       .  A
C1364      H1368   1.082       .  S
C1369      C1374   1.380       .  A
C1369      C1370   1.408       .  A
C1369      O1375   1.323       .  A
C1370      C1371   1.408       .  A
C1370      H1381   1.082       .  S
C1371      C1380   1.368       .  A
C1371      C1372   1.380       .  A
C1372      C1373   1.404       .  A
C1372      O1378   1.319       .  A
C1373      C1374   1.403       .  A
C1373      H1382   1.082       .  S
C1374      C1377   1.362       .  A
O1375      C1376   1.333       .  A
C1376      C1377   1.391       .  A
C1377      H1383   1.082       .  S
O1378      C1379   1.331       .  A
C1379      C1380   1.394       .  A
C1380      H1384   1.082       .  S
C1385      C1390   1.381       .  A
C1385      C1386   1.404       .  A
C1385      O1391   1.319       .  A
C1386      C1387   1.403       .  A
C1386      H1397   1.082       .  S
C1387      C1396   1.362       .  A
C1387      C1388   1.380       .  A
C1388      C1389   1.406       .  A
C1388      O1394   1.321       .  A
C1389      C1390   1.405       .  A
C1389      H1398   1.082       .  S
C1390      C1393   1.365       .  A
O1391      C1392   1.330       .  A
C1392      C1393   1.392       .  A
C1393      H1399   1.082       .  S
O1394      C1395   1.332       .  A
C1395      C1396   1.391       .  A
C1396      H1400   1.082       .  S
C1401      C1406   1.380       .  A
C1401      C1402   1.404       .  A
C1401      O1407   1.320       .  A
C1402      C1403   1.403       .  A
C1402      H1413   1.082       .  S
C1403      C1412   1.363       .  A
C1403      C1404   1.381       .  A
C1404      C1405   1.405       .  A
C1404      O1410   1.320       .  A
C1405      C1406   1.404       .  A
C1405      H1414   1.082       .  S
C1406      C1409   1.363       .  A
O1407      C1408   1.331       .  A
C1408      C1409   1.391       .  A
C1409      H1415   1.082       .  S
O1410      C1411   1.331       .  A
C1411      C1412   1.390       .  A
C1412      H1416   1.082       .  S
C1417      C1422   1.380       .  A
C1417      C1418   1.406       .  A
C1417      O1423   1.321       .  A
C1418      C1419   1.405       .  A
C1418      H1429   1.082       .  S
C1419      C1428   1.365       .  A
C1419      C1420   1.381       .  A
C1420      C1421   1.401       .  A
C1420      O1426   1.317       .  A
C1421      C1422   1.401       .  A
C1421      H1430   1.082       .  S
C1422      C1425   1.360       .  A
O1423      C1424   1.332       .  A
C1424      C1425   1.390       .  A
C1425      H1431   1.082       .  S
O1426      C1427   1.329       .  A
C1427      C1428   1.392       .  A
C1428      H1432   1.082       .  S
C1433      C1438   1.380       .  A
C1433      C1434   1.405       .  A
C1433      O1439   1.321       .  A
C1434      C1435   1.404       .  A
C1434      H1445   1.082       .  S
C1435      C1444   1.364       .  A
C1435      C1436   1.381       .  A
C1436      C1437   1.404       .  A
C1436      O1442   1.320       .  A
C1437      C1438   1.404       .  A
C1437      H1446   1.082       .  S
C1438      C1441   1.362       .  A
O1439      C1440   1.331       .  A
C1440      C1441   1.391       .  A
C1441      H1447   1.082       .  S
O1442      C1443   1.331       .  A
C1443      C1444   1.391       .  A
C1444      H1448   1.082       .  S
C1449      C1454   1.380       .  A
C1449      C1450   1.402       .  A
C1449      O1455   1.318       .  A
C1450      C1451   1.401       .  A
C1450      H1461   1.082       .  S
C1451      C1460   1.361       .  A
C1451      C1452   1.380       .  A
C1452      C1453   1.409       .  A
C1452      O1458   1.324       .  A
C1453      C1454   1.409       .  A
C1453      H1462   1.082       .  S
C1454      C1457   1.369       .  A
O1455      C1456   1.330       .  A
C1456      C1457   1.394       .  A
C1457      H1463   1.082       .  S
O1458      C1459   1.334       .  A
C1459      C1460   1.390       .  A
C1460      H1464   1.083       .  S
C1465      C1470   1.381       .  A
C1465      C1466   1.405       .  A
C1465      O1471   1.321       .  A
C1466      C1467   1.404       .  A
C1466      H1477   1.082       .  S
C1467      C1476   1.363       .  A
C1467      C1468   1.381       .  A
C1468      C1469   1.401       .  A
C1468      O1474   1.317       .  A
C1469      C1470   1.401       .  A
C1469      H1478   1.082       .  S
C1470      C1473   1.359       .  A
O1471      C1472   1.331       .  A
C1472      C1473   1.388       .  A
C1473      H1479   1.083       .  S
O1474      C1475   1.329       .  A
C1475      C1476   1.391       .  A
C1476      H1480   1.082       .  S
C1481      C1486   1.381       .  A
C1481      C1482   1.404       .  A
C1481      O1487   1.320       .  A
C1482      C1483   1.404       .  A
C1482      H1493   1.082       .  S
C1483      C1492   1.362       .  A
C1483      C1484   1.380       .  A
C1484      C1485   1.405       .  A
C1484      O1490   1.321       .  A
C1485      C1486   1.404       .  A
C1485      H1494   1.082       .  S
C1486      C1489   1.363       .  A
O1487      C1488   1.331       .  A
C1488      C1489   1.390       .  A
C1489      H1495   1.082       .  S
O1490      C1491   1.331       .  A
C1491      C1492   1.392       .  A
C1492      H1496   1.082       .  S
C1497      C1502   1.380       .  A
C1497      C1498   1.405       .  A
C1497      O1503   1.321       .  A
C1498      C1499   1.405       .  A
C1498      H1509   1.082       .  S
C1499      C1508   1.364       .  A
C1499      C1500   1.380       .  A
C1500      C1501   1.408       .  A
C1500      O1506   1.323       .  A
C1501      C1502   1.407       .  A
C1501      H1510   1.082       .  S
C1502      C1505   1.367       .  A
O1503      C1504   1.332       .  A
C1504      C1505   1.393       .  A
C1505      H1511   1.082       .  S
O1506      C1507   1.333       .  A
C1507      C1508   1.391       .  A
C1508      H1512   1.082       .  S
C1513      C1518   1.380       .  A
C1513      C1514   1.406       .  A
C1513      O1519   1.321       .  A
C1514      C1515   1.405       .  A
C1514      H1525   1.082       .  S
C1515      C1524   1.365       .  A
C1515      C1516   1.380       .  A
C1516      C1517   1.406       .  A
C1516      O1522   1.321       .  A
C1517      C1518   1.405       .  A
C1517      H1526   1.082       .  S
C1518      C1521   1.365       .  A
O1519      C1520   1.332       .  A
C1520      C1521   1.392       .  A
C1521      H1527   1.082       .  S
O1522      C1523   1.332       .  A
C1523      C1524   1.391       .  A
C1524      H1528   1.082       .  S
C1529      C1534   1.380       .  A
C1529      C1530   1.407       .  A
C1529      O1535   1.323       .  A
C1530      C1531   1.406       .  A
C1530      H1541   1.082       .  S
C1531      C1540   1.365       .  A
C1531      C1532   1.381       .  A
C1532      C1533   1.404       .  A
C1532      O1538   1.320       .  A
C1533      C1534   1.404       .  A
C1533      H1542   1.082       .  S
C1534      C1537   1.362       .  A
O1535      C1536   1.333       .  A
C1536      C1537   1.392       .  A
C1537      H1543   1.082       .  S
O1538      C1539   1.330       .  A
C1539      C1540   1.392       .  A
C1540      H1544   1.082       .  S
C1545      C1550   1.380       .  A
C1545      C1546   1.408       .  A
C1545      O1551   1.323       .  A
C1546      C1547   1.407       .  A
C1546      H1557   1.082       .  S
C1547      C1556   1.367       .  A
C1547      C1548   1.380       .  A
C1548      C1549   1.403       .  A
C1548      O1554   1.319       .  A
C1549      C1550   1.403       .  A
C1549      H1558   1.082       .  S
C1550      C1553   1.362       .  A
O1551      C1552   1.333       .  A
C1552      C1553   1.391       .  A
C1553      H1559   1.082       .  S
O1554      C1555   1.330       .  A
C1555      C1556   1.393       .  A
C1556      H1560   1.082       .  S
C1561      C1566   1.380       .  A
C1561      C1562   1.408       .  A
C1561      O1567   1.323       .  A
C1562      C1563   1.407       .  A
C1562      H1573   1.082       .  S
C1563      C1572   1.367       .  A
C1563      C1564   1.381       .  A
C1564      C1565   1.402       .  A
C1564      O1570   1.319       .  A
C1565      C1566   1.402       .  A
C1565      H1574   1.082       .  S
C1566      C1569   1.360       .  A
O1567      C1568   1.333       .  A
C1568      C1569   1.390       .  A
C1569      H1575   1.082       .  S
O1570      C1571   1.330       .  A
C1571      C1572   1.392       .  A
C1572      H1576   1.082       .  S
C1577      C1582   1.380       .  A
C1577      C1578   1.405       .  A
C1577      O1583   1.320       .  A
C1578      C1579   1.404       .  A
C1578      H1589   1.082       .  S
C1579      C1588   1.363       .  A
C1579      C1580   1.380       .  A
C1580      C1581   1.407       .  A
C1580      O1586   1.323       .  A
C1581      C1582   1.407       .  A
C1581      H1590   1.082       .  S
C1582      C1585   1.367       .  A
O1583      C1584   1.331       .  A
C1584      C1585   1.392       .  A
C1585      H1591   1.082       .  S
O1586      C1587   1.333       .  A
C1587      C1588   1.392       .  A
C1588      H1592   1.082       .  S
C1593      C1598   1.380       .  A
C1593      C1594   1.404       .  A
C1593      O1599   1.320       .  A
C1594      C1595   1.403       .  A
C1594      H1605   1.082       .  S
C1595      C1604   1.362       .  A
C1595      C1596   1.380       .  A
C1596      C1597   1.407       .  A
C1596      O1602   1.322       .  A
C1597      C1598   1.406       .  A
C1597      H1606   1.082       .  S
C1598      C1601   1.366       .  A
O1599      C1600   1.331       .  A
C1600      C1601   1.393       .  A
C1601      H1607   1.082       .  S
O1602      C1603   1.332       .  A
C1603      C1604   1.390       .  A
C1604      H1608   1.082       .  S
C1609      C1614   1.380       .  A
C1609      C1610   1.405       .  A
C1609      O1615   1.321       .  A
C1610      C1611   1.405       .  A
C1610      H1621   1.082       .  S
C1611      C1620   1.364       .  A
C1611      C1612   1.380       .  A
C1612      C1613   1.404       .  A
C1612      O1618   1.320       .  A
C1613      C1614   1.404       .  A
C1613      H1622   1.082       .  S
C1614      C1617   1.363       .  A
O1615      C1616   1.332       .  A
C1616      C1617   1.392       .  A
C1617      H1623   1.082       .  S
O1618      C1619   1.331       .  A
C1619      C1620   1.391       .  A
C1620      H1624   1.082       .  S
C1625      C1630   1.381       .  A
C1625      C1626   1.406       .  A
C1625      O1631   1.322       .  A
C1626      C1627   1.406       .  A
C1626      H1637   1.082       .  S
C1627      C1636   1.366       .  A
C1627      C1628   1.381       .  A
C1628      C1629   1.402       .  A
C1628      O1634   1.318       .  A
C1629      C1630   1.401       .  A
C1629      H1638   1.082       .  S
C1630      C1633   1.360       .  A
O1631      C1632   1.332       .  A
C1632      C1633   1.390       .  A
C1633      H1639   1.083       .  S
O1634      C1635   1.330       .  A
C1635      C1636   1.392       .  A
C1636      H1640   1.082       .  S
C1641      C1646   1.380       .  A
C1641      C1642   1.405       .  A
C1641      O1647   1.320       .  A
C1642      C1643   1.404       .  A
C1642      H1653   1.082       .  S
C1643      C1652   1.364       .  A
C1643      C1644   1.380       .  A
C1644      C1645   1.406       .  A
C1644      O1650   1.321       .  A
C1645      C1646   1.405       .  A
C1645      H1654   1.082       .  S
C1646      C1649   1.366       .  A
O1647      C1648   1.331       .  A
C1648      C1649   1.392       .  A
C1649      H1655   1.082       .  S
O1650      C1651   1.332       .  A
C1651      C1652   1.391       .  A
C1652      H1656   1.082       .  S
C1657      C1662   1.380       .  A
C1657      C1658   1.407       .  A
C1657      O1663   1.321       .  A
C1658      C1659   1.406       .  A
C1658      H1669   1.082       .  S
C1659      C1668   1.366       .  A
C1659      C1660   1.380       .  A
C1660      C1661   1.405       .  A
C1660      O1666   1.320       .  A
C1661      C1662   1.404       .  A
C1661      H1670   1.082       .  S
C1662      C1665   1.364       .  A
O1663      C1664   1.332       .  A
C1664      C1665   1.391       .  A
C1665      H1671   1.082       .  S
O1666      C1667   1.331       .  A
C1667      C1668   1.392       .  A
C1668      H1672   1.082       .  S
C1673      C1678   1.381       .  A
C1673      C1674   1.405       .  A
C1673      O1679   1.322       .  A
C1674      C1675   1.405       .  A
C1674      H1685   1.082       .  S
C1675      C1684   1.362       .  A
C1675      C1676   1.381       .  A
C1676      C1677   1.403       .  A
C1676      O1682   1.321       .  A
C1677      C1678   1.404       .  A
C1677      H1686   1.082       .  S
C1678      C1681   1.360       .  A
O1679      C1680   1.332       .  A
C1680      C1681   1.391       .  A
C1681      H1687   1.083       .  S
O1682      C1683   1.331       .  A
C1683      C1684   1.392       .  A
C1684      H1688   1.082       .  S
C1689      C1694   1.381       .  A
C1689      C1690   1.404       .  A
C1689      O1695   1.319       .  A
C1690      C1691   1.403       .  A
C1690      H1701   1.082       .  S
C1691      C1700   1.363       .  A
C1691      C1692   1.381       .  A
C1692      C1693   1.404       .  A
C1692      O1698   1.318       .  A
C1693      C1694   1.403       .  A
C1693      H1702   1.082       .  S
C1694      C1697   1.363       .  A
O1695      C1696   1.330       .  A
C1696      C1697   1.390       .  A
C1697      H1703   1.082       .  S
O1698      C1699   1.330       .  A
C1699      C1700   1.391       .  A
C1700      H1704   1.082       .  S
C1705      C1710   1.381       .  A
C1705      C1706   1.405       .  A
C1705      O1711   1.319       .  A
C1706      C1707   1.404       .  A
C1706      H1717   1.082       .  S
C1707      C1716   1.364       .  A
C1707      C1708   1.381       .  A
C1708      C1709   1.403       .  A
C1708      O1714   1.318       .  A
C1709      C1710   1.402       .  A
C1709      H1718   1.082       .  S
C1710      C1713   1.362       .  A
O1711      C1712   1.331       .  A
C1712      C1713   1.390       .  A
C1713      H1719   1.082       .  S
O1714      C1715   1.331       .  A
C1715      C1716   1.391       .  A
C1716      H1720   1.082       .  S
C1721      C1726   1.380       .  A
C1721      C1722   1.404       .  A
C1721      O1727   1.318       .  A
C1722      C1723   1.403       .  A
C1722      H1733   1.082       .  S
C1723      C1732   1.362       .  A
C1723      C1724   1.380       .  A
C1724      C1725   1.406       .  A
C1724      O1730   1.321       .  A
C1725      C1726   1.405       .  A
C1725      H1734   1.082       .  S
C1726      C1729   1.366       .  A
O1727      C1728   1.331       .  A
C1728      C1729   1.391       .  A
C1729      H1735   1.082       .  S
O1730      C1731   1.331       .  A
C1731      C1732   1.391       .  A
C1732      H1736   1.083       .  S
C1737      C1742   1.380       .  A
C1737      C1738   1.404       .  A
C1737      O1743   1.319       .  A
C1738      C1739   1.403       .  A
C1738      H1749   1.082       .  S
C1739      C1748   1.362       .  A
C1739      C1740   1.381       .  A
C1740      C1741   1.405       .  A
C1740      O1746   1.321       .  A
C1741      C1742   1.405       .  A
C1741      H1750   1.082       .  S
C1742      C1745   1.365       .  A
O1743      C1744   1.331       .  A
C1744      C1745   1.391       .  A
C1745      H1751   1.082       .  S
O1746      C1747   1.331       .  A
C1747      C1748   1.390       .  A
C1748      H1752   1.083       .  S
C1753      C1758   1.381       .  A
C1753      C1754   1.403       .  A
C1753      O1759   1.318       .  A
C1754      C1755   1.402       .  A
C1754      H1765   1.082       .  S
C1755      C1764   1.362       .  A
C1755      C1756   1.381       .  A
C1756      C1757   1.404       .  A
C1756      O1762   1.319       .  A
C1757      C1758   1.403       .  A
C1757      H1766   1.082       .  S
C1758      C1761   1.362       .  A
O1759      C1760   1.330       .  A
C1760      C1761   1.391       .  A
C1761      H1767   1.082       .  S
O1762      C1763   1.331       .  A
C1763      C1764   1.390       .  A
C1764      H1768   1.082       .  S
C1769      C1774   1.381       .  A
C1769      C1770   1.406       .  A
C1769      O1775   1.322       .  A
C1770      C1771   1.405       .  A
C1770      H1781   1.082       .  S
C1771      C1780   1.363       .  A
C1771      C1772   1.381       .  A
C1772      C1773   1.402       .  A
C1772      O1778   1.319       .  A
C1773      C1774   1.402       .  A
C1773      H1782   1.082       .  S
C1774      C1777   1.360       .  A
O1775      C1776   1.332       .  A
C1776      C1777   1.390       .  A
C1777      H1783   1.082       .  S
O1778      C1779   1.330       .  A
C1779      C1780   1.392       .  A
C1780      H1784   1.082       .  S
C1785      C1790   1.380       .  A
C1785      C1786   1.406       .  A
C1785      O1791   1.320       .  A
C1786      C1787   1.405       .  A
C1786      H1797   1.082       .  S
C1787      C1796   1.365       .  A
C1787      C1788   1.381       .  A
C1788      C1789   1.403       .  A
C1788      O1794   1.318       .  A
C1789      C1790   1.402       .  A
C1789      H1798   1.082       .  S
C1790      C1793   1.362       .  A
O1791      C1792   1.332       .  A
C1792      C1793   1.390       .  A
C1793      H1799   1.082       .  S
O1794      C1795   1.330       .  A
C1795      C1796   1.391       .  A
C1796      H1800   1.082       .  S
C1801      C1806   1.380       .  A
C1801      C1802   1.408       .  A
C1801      O1807   1.323       .  A
C1802      C1803   1.408       .  A
C1802      H1813   1.082       .  S
C1803      C1812   1.368       .  A
C1803      C1804   1.381       .  A
C1804      C1805   1.402       .  A
C1804      O1810   1.318       .  A
C1805      C1806   1.401       .  A
C1805      H1814   1.082       .  S
C1806      C1809   1.360       .  A
O1807      C1808   1.333       .  A
C1808      C1809   1.390       .  A
C1809      H1815   1.082       .  S
O1810      C1811   1.330       .  A
C1811      C1812   1.394       .  A
C1812      H1816   1.082       .  S
C1817      C1822   1.380       .  A
C1817      C1818   1.403       .  A
C1817      O1823   1.318       .  A
C1818      C1819   1.402       .  A
C1818      H1829   1.082       .  S
C1819      C1828   1.361       .  A
C1819      C1820   1.381       .  A
C1820      C1821   1.408       .  A
C1820      O1826   1.323       .  A
C1821      C1822   1.407       .  A
C1821      H1830   1.082       .  S
C1822      C1825   1.367       .  A
O1823      C1824   1.330       .  A
C1824      C1825   1.393       .  A
C1825      H1831   1.082       .  S
O1826      C1827   1.332       .  A
C1827      C1828   1.390       .  A
C1828      H1832   1.083       .  S
C1833      C1838   1.380       .  A
C1833      C1834   1.407       .  A
C1833      O1839   1.322       .  A
C1834      C1835   1.406       .  A
C1834      H1845   1.082       .  S
C1835      C1844   1.366       .  A
C1835      C1836   1.380       .  A
C1836      C1837   1.404       .  A
C1836      O1842   1.320       .  A
C1837      C1838   1.403       .  A
C1837      H1846   1.082       .  S
C1838      C1841   1.363       .  A
O1839      C1840   1.333       .  A
C1840      C1841   1.391       .  A
C1841      H1847   1.082       .  S
O1842      C1843   1.331       .  A
C1843      C1844   1.392       .  A
C1844      H1848   1.082       .  S
C1849      C1854   1.380       .  A
C1849      C1850   1.404       .  A
C1849      O1855   1.319       .  A
C1850      C1851   1.403       .  A
C1850      H1861   1.082       .  S
C1851      C1860   1.362       .  A
C1851      C1852   1.380       .  A
C1852      C1853   1.407       .  A
C1852      O1858   1.322       .  A
C1853      C1854   1.406       .  A
C1853      H1862   1.082       .  S
C1854      C1857   1.367       .  A
O1855      C1856   1.331       .  A
C1856      C1857   1.392       .  A
C1857      H1863   1.082       .  S
O1858      C1859   1.332       .  A
C1859      C1860   1.391       .  A
C1860      H1864   1.082       .  S
C1865      C1870   1.380       .  A
C1865      C1866   1.407       .  A
C1865      O1871   1.323       .  A
C1866      C1867   1.407       .  A
C1866      H1877   1.082       .  S
C1867      C1876   1.368       .  A
C1867      C1868   1.380       .  A
C1868      C1869   1.405       .  A
C1868      O1874   1.320       .  A
C1869      C1870   1.403       .  A
C1869      H1878   1.082       .  S
C1870      C1873   1.363       .  A
O1871      C1872   1.332       .  A
C1872      C1873   1.391       .  A
C1873      H1879   1.082       .  S
O1874      C1875   1.332       .  A
C1875      C1876   1.393       .  A
C1876      H1880   1.082       .  S
C1881      C1886   1.381       .  A
C1881      C1882   1.402       .  A
C1881      O1887   1.319       .  A
C1882      C1883   1.402       .  A
C1882      H1893   1.082       .  S
C1883      C1892   1.359       .  A
C1883      C1884   1.381       .  A
C1884      C1885   1.407       .  A
C1884      O1890   1.323       .  A
C1885      C1886   1.407       .  A
C1885      H1894   1.082       .  S
C1886      C1889   1.365       .  A
O1887      C1888   1.330       .  A
C1888      C1889   1.393       .  A
C1889      H1895   1.082       .  S
O1890      C1891   1.332       .  A
C1891      C1892   1.389       .  A
C1892      H1896   1.083   1_556  S
C1897      C1902   1.380       .  A
C1897      C1898   1.404       .  A
C1897      O1903   1.321       .  A
C1898      C1899   1.404       .  A
C1898      H1909   1.082       .  S
C1899      C1908   1.362       .  A
C1899      C1900   1.380       .  A
C1900      C1901   1.406       .  A
C1900      O1906   1.323       .  A
C1901      C1902   1.406       .  A
C1901      H1910   1.082       .  S
C1902      C1905   1.365       .  A
O1903      C1904   1.331       .  A
C1904      C1905   1.393       .  A
C1905      H1911   1.082       .  S
O1906      C1907   1.332       .  A
C1907      C1908   1.391       .  A
C1908      H1912   1.082       .  S
C1913      C1918   1.381       .  A
C1913      C1914   1.403       .  A
C1913      O1919   1.319       .  A
C1914      C1915   1.402       .  A
C1914      H1925   1.082       .  S
C1915      C1924   1.361       .  A
C1915      C1916   1.381       .  A
C1916      C1917   1.406       .  A
C1916      O1922   1.322       .  A
C1917      C1918   1.405       .  A
C1917      H1926   1.082       .  S
C1918      C1921   1.365       .  A
O1919      C1920   1.330       .  A
C1920      C1921   1.392       .  A
C1921      H1927   1.082       .  S
O1922      C1923   1.332       .  A
C1923      C1924   1.390       .  A
C1924      H1928   1.083       .  S
C1929      C1934   1.381       .  A
C1929      C1930   1.404       .  A
C1929      O1935   1.320       .  A
C1930      C1931   1.404       .  A
C1930      H1941   1.082       .  S
C1931      C1940   1.363       .  A
C1931      C1932   1.380       .  A
C1932      C1933   1.405       .  A
C1932      O1938   1.321       .  A
C1933      C1934   1.404       .  A
C1933      H1942   1.082       .  S
C1934      C1937   1.364       .  A
O1935      C1936   1.331       .  A
C1936      C1937   1.391       .  A
C1937      H1943   1.082       .  S
O1938      C1939   1.332       .  A
C1939      C1940   1.391       .  A
C1940      H1944   1.082       .  S
C1945      C1950   1.381       .  A
C1945      C1946   1.403       .  A
C1945      O1951   1.318       .  A
C1946      C1947   1.401       .  A
C1946      H1957   1.082       .  S
C1947      C1956   1.362       .  A
C1947      C1948   1.380       .  A
C1948      C1949   1.408       .  A
C1948      O1954   1.322       .  A
C1949      C1950   1.407       .  A
C1949      H1958   1.082       .  S
C1950      C1953   1.367       .  A
O1951      C1952   1.330       .  A
C1952      C1953   1.393       .  A
C1953      H1959   1.082       .  S
O1954      C1955   1.333       .  A
C1955      C1956   1.389       .  A
C1956      H1960   1.082       .  S
C1961      C1966   1.381       .  A
C1961      C1962   1.403       .  A
C1961      O1967   1.320       .  A
C1962      C1963   1.403       .  A
C1962      H1973   1.082       .  S
C1963      C1972   1.361       .  A
C1963      C1964   1.380       .  A
C1964      C1965   1.406       .  A
C1964      O1970   1.322       .  A
C1965      C1966   1.405       .  A
C1965      H1974   1.082       .  S
C1966      C1969   1.364       .  A
O1967      C1968   1.330       .  A
C1968      C1969   1.392       .  A
C1969      H1975   1.082       .  S
O1970      C1971   1.332       .  A
C1971      C1972   1.391       .  A
C1972      H1976   1.082       .  S
C1977      C1982   1.380       .  A
C1977      C1978   1.405       .  A
C1977      O1983   1.320       .  A
C1978      C1979   1.404       .  A
C1978      H1989   1.082       .  S
C1979      C1988   1.364       .  A
C1979      C1980   1.380       .  A
C1980      C1981   1.408       .  A
C1980      O1986   1.323       .  A
C1981      C1982   1.408       .  A
C1981      H1990   1.082       .  S
C1982      C1985   1.368       .  A
O1983      C1984   1.332       .  A
C1984      C1985   1.394       .  A
C1985      H1991   1.082       .  S
O1986      C1987   1.333       .  A
C1987      C1988   1.391       .  A
C1988      H1992   1.082       .  S
C1993      C1998   1.380       .  A
C1993      C1994   1.405       .  A
C1993      O1999   1.321       .  A
C1994      C1995   1.404       .  A
C1994      H2005   1.082       .  S
C1995      C2004   1.363       .  A
C1995      C1996   1.381       .  A
C1996      C1997   1.405       .  A
C1996      O2002   1.321       .  A
C1997      C1998   1.405       .  A
C1997      H2006   1.082       .  S
C1998      C2001   1.364       .  A
O1999      C2000   1.332       .  A
C2000      C2001   1.392       .  A
C2001      H2007   1.082       .  S
O2002      C2003   1.331       .  A
C2003      C2004   1.391       .  A
C2004      H2008   1.082       .  S
C2009      C2014   1.380       .  A
C2009      C2010   1.405       .  A
C2009      O2015   1.320       .  A
C2010      C2011   1.404       .  A
C2010      H2021   1.082       .  S
C2011      C2020   1.363       .  A
C2011      C2012   1.381       .  A
C2012      C2013   1.404       .  A
C2012      O2018   1.321       .  A
C2013      C2014   1.404       .  A
C2013      H2022   1.082       .  S
C2014      C2017   1.363       .  A
O2015      C2016   1.331       .  A
C2016      C2017   1.391       .  A
C2017      H2023   1.082       .  S
O2018      C2019   1.331       .  A
C2019      C2020   1.391       .  A
C2020      H2024   1.082       .  S
C2025      C2030   1.380       .  A
C2025      C2026   1.403       .  A
C2025      O2031   1.318       .  A
C2026      C2027   1.402       .  A
C2026      H2037   1.082       .  S
C2027      C2036   1.362       .  A
C2027      C2028   1.381       .  A
C2028      C2029   1.406       .  A
C2028      O2034   1.321       .  A
C2029      C2030   1.405       .  A
C2029      H2038   1.082       .  S
C2030      C2033   1.365       .  A
O2031      C2032   1.330       .  A
C2032      C2033   1.392       .  A
C2033      H2039   1.082       .  S
O2034      C2035   1.332       .  A
C2035      C2036   1.390       .  A
C2036      H2040   1.083       .  S
C2041      C2046   1.381       .  A
C2041      C2042   1.402       .  A
C2041      O2047   1.319       .  A
C2042      C2043   1.401       .  A
C2042      H2053   1.082       .  S
C2043      C2052   1.359       .  A
C2043      C2044   1.381       .  A
C2044      C2045   1.407       .  A
C2044      O2050   1.323       .  A
C2045      C2046   1.407       .  A
C2045      H2054   1.082       .  S
C2046      C2049   1.365       .  A
O2047      C2048   1.330       .  A
C2048      C2049   1.393       .  A
C2049      H2055   1.082       .  S
O2050      C2051   1.332       .  A
C2051      C2052   1.389       .  A
C2052      H2056   1.083       .  S
C2057      C2062   1.380       .  A
C2057      C2058   1.406       .  A
C2057      O2063   1.322       .  A
C2058      C2059   1.405       .  A
C2058      H2069   1.082       .  S
C2059      C2068   1.365       .  A
C2059      C2060   1.380       .  A
C2060      C2061   1.407       .  A
C2060      O2066   1.322       .  A
C2061      C2062   1.406       .  A
C2061      H2070   1.082       .  S
C2062      C2065   1.365       .  A
O2063      C2064   1.332       .  A
C2064      C2065   1.392       .  A
C2065      H2071   1.082   1_545  S
O2066      C2067   1.333       .  A
C2067      C2068   1.393       .  A
C2068      H2072   1.082       .  S
C2073      C2078   1.380       .  A
C2073      C2074   1.404       .  A
C2073      O2079   1.319       .  A
C2074      C2075   1.403       .  A
C2074      H2085   1.082       .  S
C2075      C2084   1.363       .  A
C2075      C2076   1.380       .  A
C2076      C2077   1.407       .  A
C2076      O2082   1.322       .  A
C2077      C2078   1.406       .  A
C2077      H2086   1.082       .  S
C2078      C2081   1.367       .  A
O2079      C2080   1.332       .  A
C2080      C2081   1.392       .  A
C2081      H2087   1.082       .  S
O2082      C2083   1.332       .  A
C2083      C2084   1.391       .  A
C2084      H2088   1.082       .  S
