geometry optimzed in LAMMPS
_audit_creation_date              2020-11-30 
_audit_creation_method            'lammps2cif' 
_symmetry_space_group_name_H-M    'P1' 
_symmetry_Int_Tables_number       1 
_symmetry_cell_setting            triclinic 
loop_ 
_symmetry_equiv_pos_as_xyz 
  x,y,z 
_cell_length_a                    25.47304037 
_cell_length_b                    51.364960271237116 
_cell_length_c                    32.02764156692567 
_cell_angle_alpha                 90.08289055042 
_cell_angle_beta                  90.7869695797785 
_cell_angle_gamma                 90.3990631346206 
loop_ 
_atom_site_label 
_atom_site_type_symbol 
_atom_site_fract_x 
_atom_site_fract_y 
_atom_site_fract_z 
_atom_site_charge 
O1          O  0.42389680  0.18220572  0.05246197    -0.75400
O2          O  0.45667618  0.20688401  0.10628812    -0.54300
C3          C  0.43061559  0.18763045  0.09116580     0.78300
O4          O  0.61960693  0.20746591  0.42438089    -0.60000
O5          O  0.57207558  0.23098215  0.37734904    -0.53000
C6          C  0.60713292  0.21436949  0.38689149     0.70300
O7          O  0.62534328  0.20841341  0.06933621    -0.74600
O8          O  0.56362673  0.21927083  0.11659480    -0.55100
C9          C  0.60729004  0.20924622  0.10674465     0.76300
O10         O  0.42753455  0.19207069  0.41333119    -0.59700
O11         O  0.46855087  0.22176329  0.37226660    -0.48600
C12         C  0.44046755  0.20134213  0.37752502     0.72900
Zr13       Zr  0.44536720  0.20214931  0.98733293     2.54700
O14         O  0.46882391  0.15649516  0.98068146    -0.80300
O15         O  0.34948498  0.19362701  0.47868739    -0.93700
Zr16       Zr  0.59833777  0.21873144  0.99750458     2.64700
O17         O  0.62596670  0.17364464  0.99210480    -0.98700
O18         O  0.69150560  0.21797275  0.49605826    -0.80700
O19         O  0.52040736  0.20652098  0.03200802    -0.84100
O20         O  0.52208495  0.20952366  0.45221098    -2.18800
O21         O  0.38545178  0.28681223  0.43016539    -0.67500
O22         O  0.44205846  0.27084837  0.38249282    -0.52000
C23         C  0.40053462  0.28277186  0.39243191     0.71300
O24         O  0.58248669  0.30319058  0.07903414    -0.60400
O25         O  0.55030709  0.27145059  0.12137692    -0.52400
C26         C  0.57579577  0.29252691  0.11442457     0.73100
O27         O  0.60489138  0.30618632  0.44445921    -0.71800
O28         O  0.56193477  0.28509217  0.39139844    -0.50400
C29         C  0.59508349  0.30176727  0.40602261     0.74500
O30         O  0.38584497  0.28367230  0.07489853    -0.67100
O31         O  0.43698147  0.26014474  0.11961626    -0.54300
C32         C  0.39937137  0.27570355  0.11185130     0.72900
Zr33       Zr  0.41457581  0.27705607  0.50140416     2.77500
O34         O  0.38971079  0.32344831  0.00461966    -0.97900
O35         O  0.32048226  0.26855106  0.50207627    -0.78700
Zr36       Zr  0.56649172  0.29088861  0.50713993     2.70100
O37         O  0.53729620  0.33584862  0.50198150    -0.79900
O38         O  0.65428761  0.30777807  0.01608231    -0.99000
Zr39       Zr  0.50212117  0.24260965  0.07557486     2.21500
Zr40       Zr  0.50976995  0.25094982  0.42142890     2.11100
O41         O  0.49136146  0.28784834  0.46345939    -2.47700
O42         O  0.48578472  0.28386973  0.04515757    -0.79700
O43         O  0.42952179  0.24183943  0.45497785    -0.71900
O44         O  0.58100082  0.25406148  0.04177796    -2.32900
O45         O  0.42538486  0.23671289  0.03365175    -2.29100
O46         O  0.57718953  0.25446790  0.46774815    -0.73700
H47         H  0.52726839  0.19579437  0.43210547     0.78300
H48         H  0.61020152  0.25630964  0.06091769     0.79400
H49         H  0.48668755  0.30338407  0.44689523     0.81600
H50         H  0.39530828  0.23238744  0.05037527     0.79200
H51         H  0.68989993  0.25020545  0.98749756     0.42300
H52         H  0.67877919  0.29232599  0.50980710     0.41300
H53         H  0.52896652  0.34485682  0.98514267     0.40900
H54         H  0.36656554  0.32580248  0.51887799     0.38900
H55         H  0.30463849  0.28564875  0.50825536     0.42000
H56         H  0.35061778  0.17526337  0.96493480     0.36800
H57         H  0.49834405  0.15413450  0.00073445     0.42900
H58         H  0.63680601  0.16374550  0.48965190     0.39300
H59         H  0.42720356  0.33074674  0.52182266     0.44200
H60         H  0.33827630  0.20497333  0.96049819     0.43000
H61         H  0.66097138  0.17439646  0.97905327     0.43100
H62         H  0.66132039  0.32155795  0.50693354     0.43400
O63         O  0.39448762  0.44779214  0.06438321    -0.75400
O64         O  0.44234243  0.46750348  0.11682429    -0.54300
C65         C  0.40500928  0.45232434  0.10326480     0.78300
O66         O  0.63098092  0.45324380  0.43660832    -0.60000
O67         O  0.57851243  0.46912895  0.38400371    -0.53000
C68         C  0.61911232  0.45636708  0.39800407     0.70300
O69         O  0.61548932  0.44676144  0.07313930    -0.74600
O70         O  0.57012174  0.47006852  0.12079988    -0.55100
C71         C  0.60752501  0.45443595  0.11102791     0.76300
O72         O  0.39989339  0.44763249  0.42250354    -0.59700
O73         O  0.44914989  0.46903957  0.37456787    -0.52800
C74         C  0.41123376  0.45339146  0.38426665     0.72900
Zr75       Zr  0.42511474  0.45872653  0.99445628     2.54700
O76         O  0.41768424  0.41147226  0.99243640    -0.80300
O77         O  0.34131988  0.44445555  0.49045766    -0.93700
Zr78       Zr  0.57743062  0.45353711  0.00223339     2.64700
O79         O  0.53640818  0.41052761  0.00033770    -0.98700
O80         O  0.68016965  0.45066744  0.50079379    -0.80700
O81         O  0.49945271  0.45594959  0.04093014    -0.84100
O82         O  0.51232833  0.45771012  0.45548189    -2.18800
O83         O  0.39024700  0.03745803  0.42773474    -0.67500
O84         O  0.43805684  0.02060110  0.37535121    -0.52000
C85         C  0.39751254  0.03317929  0.38894560     0.71300
O86         O  0.61415285  0.04537052  0.06509023    -0.60400
O87         O  0.56570328  0.02778324  0.11662860    -0.52400
C88         C  0.60437204  0.04204067  0.10379348     0.73100
O89         O  0.61798474  0.04483709  0.42665514    -0.71800
O90         O  0.56906153  0.02396062  0.37640161    -0.50400
C91         C  0.60664243  0.03948175  0.38818866     0.74500
O92         O  0.39330095  0.04624595  0.06265191    -0.67100
O93         O  0.43990787  0.02511065  0.11345191    -0.54300
C94         C  0.40308510  0.04072854  0.10117617     0.72900
Zr95       Zr  0.42955175  0.03285490  0.49629010     2.77500
O96         O  0.44453674  0.08085708  0.98990637    -0.97900
O97         O  0.33449733  0.03920131  0.99628460    -0.78700
Zr98       Zr  0.58341125  0.03465499  0.49620616     2.70100
O99         O  0.57353158  0.08173825  0.49343715    -0.79900
O100        O  0.67631301  0.04178665  0.00061103    -0.99000
Zr101      Zr  0.50607715  0.49565835  0.08066767     2.21500
Zr102      Zr  0.50971245  0.49711678  0.41492284     2.11100
O103        O  0.50589564  0.03474252  0.45414793    -2.47700
O104        O  0.50537046  0.03630979  0.03780991    -0.79700
O105        O  0.43223628  0.49562197  0.45586144    -0.71900
O106        O  0.58422310  0.49295949  0.04010093    -2.32900
O107        O  0.42980624  0.49694209  0.03616527    -2.29100
O108        O  0.58496273  0.49765269  0.46016309    -0.73700
H109        H  0.51412406  0.44256614  0.43737931     0.78300
H110        H  0.61555663  0.49281722  0.05732351     0.79400
H111        H  0.50503026  0.04985478  0.43630121     0.81600
H112        H  0.39804773  0.49732483  0.05230988     0.79200
H113        H  0.68581987  0.43946055  0.99953385     0.42300
H114        H  0.69147509  0.02275829  0.48488452     0.41300
H115        H  0.58050070  0.08922999  0.96980541     0.40900
H116        H  0.43458802  0.08390864  0.46098537     0.38900
H117        H  0.32588891  0.01195787  0.49548033     0.42000
H118        H  0.32647784  0.48274126  0.97826599     0.36800
H119        H  0.38066221  0.40803081  0.98422769     0.42900
H120        H  0.59175237  0.40621812  0.47680897     0.39300
H121        H  0.39905178  0.08618459  0.50045135     0.44200
H122        H  0.32094100  0.46981029  0.02211259     0.43000
H123        H  0.53171172  0.40577520  0.03001193     0.43100
H124        H  0.68873492  0.05330114  0.48687089     0.43400
O125        O  0.91348628  0.30597625  0.06028763    -0.75400
O126        O  0.94759010  0.28205377  0.11441054    -0.54300
C127        C  0.92035238  0.30129791  0.09962543     0.78300
O128        O  0.91790237  0.18686400  0.43091738    -0.60000
O129        O  0.95899880  0.20920618  0.37974056    -0.53000
C130        C  0.93198365  0.18951427  0.39256471     0.70300
O131        O  0.90231767  0.19372988  0.06897065    -0.74600
O132        O  0.94485733  0.21786477  0.11901449    -0.55100
C133        C  0.91389803  0.19897956  0.10752651     0.76300
O134        O  0.91716859  0.30153422  0.41942335    -0.59700
O135        O  0.95904478  0.27520345  0.37375066    -0.52800
C136        C  0.93000302  0.29523297  0.38174172     0.72900
Zr137      Zr  0.93547316  0.28725643  0.99187265     2.54700
O138        O  0.83997219  0.28638586  0.98743557    -0.80300
O139        O  0.94239116  0.33342586  0.49119770    -0.93700
Zr140      Zr  0.92180691  0.21132660  0.99876526     2.64700
O141        O  0.83405865  0.22907938  0.98964489    -0.98700
O142        O  0.86638003  0.17144823  0.50100777    -0.80700
O143        O  0.92557393  0.25072793  0.03764785    -0.84100
O144        O  0.92675120  0.24695885  0.45258394    -2.18800
O145        O  0.10555561  0.29822373  0.43000360    -0.67500
O146        O  0.06366986  0.27402589  0.37965798    -0.52000
C147        C  0.09376702  0.29299967  0.39156123     0.71300
O148        O  0.09783925  0.19081494  0.07895988    -0.60400
O149        O  0.05849502  0.21834767  0.12492773    -0.52400
C150        C  0.08797682  0.19841448  0.11662826     0.73100
O151        O  0.10166703  0.18761129  0.43671600    -0.71800
O152        O  0.06678856  0.21192459  0.38346334    -0.50400
C153        C  0.09530702  0.19311044  0.39766945     0.74500
O154        O  0.10226565  0.30275972  0.06932414    -0.67100
O155        O  0.05394231  0.28178574  0.11806059    -0.54300
C156        C  0.08509076  0.30031417  0.10698549     0.72900
Zr157      Zr  0.08805021  0.28140988  0.50045021     2.77500
O158        O  0.18118535  0.27127933  0.50486938    -0.97900
O159        O  0.14513132  0.32004824  0.99804309    -0.78700
Zr160      Zr  0.07781042  0.20493731  0.50537271     2.70100
O161        O  0.17337802  0.20624399  0.50803368    -0.79900
O162        O  0.07010144  0.15729916  0.00907802    -0.99000
Zr163      Zr  0.00279027  0.24826974  0.08163237     2.21500
Zr164      Zr  0.00850027  0.24327285  0.41709404     2.11100
O165        O  0.08582022  0.24211612  0.46108219    -2.47700
O166        O  0.08430994  0.24395688  0.04574005    -0.79700
O167        O  0.01244381  0.28254882  0.45652110    -0.71900
O168        O  0.99816010  0.20859656  0.04234061    -2.32900
O169        O  0.01101094  0.28520627  0.03584854    -2.29100
O170        O  0.00119280  0.20612564  0.46185332    -0.73700
H171        H  0.89784648  0.24738800  0.43262807     0.78300
H172        H  0.99644976  0.19362402  0.06035174     0.79400
H173        H  0.11715182  0.24099010  0.44443690     0.81600
H174        H  0.01099927  0.30136177  0.05100640     0.79200
H175        H  0.89299526  0.15815447  0.00956095     0.42300
H176        H  0.03933124  0.15308657  0.49403457     0.41300
H177        H  0.18364442  0.18644298  0.00448724     0.40900
H178        H  0.19901337  0.28842945  0.50312265     0.38900
H179        H  0.07880277  0.33599412  0.49087030     0.42000
H180        H  0.96411610  0.34001443  0.01051009     0.36800
H181        H  0.83092064  0.29970608  0.96626668     0.42900
H182        H  0.82170129  0.22090302  0.45954801     0.39300
H183        H  0.18697684  0.26571031  0.53414301     0.44200
H184        H  0.90443152  0.34050032  0.99763020     0.43000
H185        H  0.81564583  0.22439435  0.01563314     0.43100
H186        H  0.10069961  0.15097291  0.49283804     0.43400
C187        C  0.26108997  0.12034319  0.21023120     0.45300
H188        H  0.25127860  0.11723684  0.17701102    -0.03700
C189        C  0.28042741  0.12335311  0.28868939     0.45400
H190        H  0.28953255  0.12480351  0.32222611    -0.03700
C191        C  0.31128128  0.13650022  0.21909580    -0.17400
C192        C  0.21591050  0.13492925  0.23525831    -0.17100
C193        C  0.27598664  0.09331668  0.22920262    -0.17500
C194        C  0.32187180  0.13850731  0.26186171    -0.17500
C195        C  0.22674164  0.13588706  0.27789577    -0.17100
C196        C  0.27949060  0.09432980  0.27243652    -0.17400
C197        C  0.75439853  0.12843718  0.21132144     0.45300
H198        H  0.75568060  0.13222034  0.17779273    -0.03700
C199        C  0.75153322  0.12337809  0.29078852     0.45400
H200        H  0.74706062  0.12162650  0.32471101    -0.03700
C201        C  0.71734980  0.14841329  0.23195702    -0.17400
C202        C  0.73500994  0.10036582  0.22358438    -0.17100
C203        C  0.80847281  0.13384906  0.23204910    -0.17500
C204        C  0.71648542  0.14609344  0.27484667    -0.17500
C205        C  0.72955861  0.09877543  0.26686137    -0.17100
C206        C  0.80939386  0.12955863  0.27522240    -0.17400
C207        C  0.25406745  0.36163207  0.20668978     0.45300
H208        H  0.24994279  0.35848817  0.17299116    -0.03700
C209        C  0.25884711  0.36876131  0.28589364     0.45400
H210        H  0.26087571  0.37312356  0.31948494    -0.03700
C211        C  0.28976068  0.34120537  0.22922374    -0.17400
C212        C  0.28025612  0.38814243  0.21756165    -0.17100
C213        C  0.19876623  0.35983649  0.22750171    -0.17500
C214        C  0.29162763  0.34558716  0.27263276    -0.17500
C215        C  0.28341552  0.39218855  0.26086290    -0.17100
C216        C  0.20223214  0.36058730  0.27048661    -0.17400
C217        C  0.75328642  0.36598421  0.28847967     0.45300
H218        H  0.75989443  0.36393499  0.32264374    -0.03700
C219        C  0.73695045  0.37161924  0.20982908     0.45400
H220        H  0.72848896  0.37488264  0.17673408    -0.03700
C221        C  0.70765905  0.34853293  0.27257069    -0.17400
C222        C  0.73561419  0.39444671  0.27633720    -0.17100
C223        C  0.80215878  0.35701804  0.26166644    -0.17500
C224        C  0.69902662  0.35170013  0.23028384    -0.17500
C225        C  0.73007055  0.39786072  0.23362107    -0.17100
C226        C  0.79238485  0.36018535  0.21857383    -0.17400
C227        C  0.12235761  0.34527316  0.12837579    -0.02000
C228        C  0.10129774  0.32038414  0.13960745     0.07700
C229        C  0.09402535  0.31592012  0.18317419    -0.02100
C230        C  0.11209810  0.33436066  0.21272196    -0.02100
C231        C  0.14970565  0.35319483  0.20107291     0.07800
C232        C  0.14680880  0.36135743  0.15912770    -0.02300
Br233      Br  0.17319787  0.39547511  0.14503827    -0.00800
Br234      Br  0.11788131  0.35848142  0.07221284    -0.00900
Br235      Br  0.05862556  0.34467540  0.25104207    -0.00900
Br236      Br  0.05761534  0.28600565  0.20563800    -0.00900
C237        C  0.14694427  0.29881293  0.32692690    -0.02000
C238        C  0.11715607  0.30995725  0.35865348     0.07700
C239        C  0.11033066  0.33721270  0.35891805    -0.02100
C240        C  0.13462783  0.35328025  0.32858062    -0.02100
C241        C  0.16847045  0.34266175  0.29814135     0.07800
C242        C  0.17257667  0.31474325  0.29738122    -0.02300
Br243      Br  0.21432134  0.29614149  0.25877994    -0.00800
Br244      Br  0.15629140  0.26124623  0.32631168    -0.00900
Br245      Br  0.11509426  0.38921532  0.32582930    -0.00900
Br246      Br  0.06635722  0.35261245  0.40057190    -0.00900
C247        C  0.13852099  0.14357005  0.31487227    -0.02000
C248        C  0.19289460  0.14940840  0.31114117     0.07700
C249        C  0.21418991  0.16769616  0.34086667    -0.02100
C250        C  0.18168875  0.18225612  0.36740840    -0.02100
C251        C  0.12749692  0.17792444  0.36769462     0.07800
C252        C  0.10653105  0.15752123  0.34312712    -0.02300
Br253      Br  0.03575854  0.14644249  0.35264945    -0.00800
Br254      Br  0.10887523  0.11355476  0.28738199    -0.00900
Br255      Br  0.21154151  0.20837436  0.40496088    -0.00900
Br256      Br  0.28708265  0.17445381  0.34856839    -0.00900
C257        C  0.10774967  0.15536639  0.15446485    -0.02000
C258        C  0.11312494  0.18282141  0.15238789     0.07700
C259        C  0.14584312  0.19477548  0.18295968    -0.02100
C260        C  0.17401108  0.17970582  0.21339402    -0.02100
C261        C  0.17340245  0.15175753  0.21259396     0.07800
C262        C  0.13710240  0.14023397  0.18384706    -0.02300
Br263      Br  0.12596698  0.10338660  0.18444140    -0.00800
Br264      Br  0.06033580  0.13797521  0.11615557    -0.00900
Br265      Br  0.21513307  0.19872736  0.25373142    -0.00900
Br266      Br  0.15806312  0.23187610  0.17939394    -0.00900
C267        C  0.89313234  0.15429835  0.13939194    -0.02000
C268        C  0.89057265  0.18192886  0.14107244     0.07700
C269        C  0.86730777  0.19334074  0.17625538    -0.02100
C270        C  0.84627071  0.17770093  0.20835926    -0.02100
C271        C  0.84622869  0.15012359  0.20601300     0.07800
C272        C  0.87274677  0.13870062  0.17218168    -0.02300
Br273      Br  0.88788320  0.10187821  0.17432999    -0.00800
Br274      Br  0.92373985  0.13728427  0.09210082    -0.00900
Br275      Br  0.82131525  0.19498899  0.25667571    -0.00900
Br276      Br  0.85914717  0.23073681  0.17881422    -0.00900
C277        C  0.89258925  0.14464862  0.37590286    -0.02000
C278        C  0.91460950  0.16849814  0.36174523     0.07700
C279        C  0.92070553  0.17062307  0.31789034    -0.02100
C280        C  0.89974880  0.15101120  0.29138588    -0.02100
C281        C  0.85743446  0.13526322  0.30490207     0.07800
C282        C  0.86011826  0.12938636  0.34873899    -0.02300
Br283      Br  0.81707820  0.10411937  0.37635550    -0.00800
Br284      Br  0.90976740  0.13131812  0.43085373    -0.00900
Br285      Br  0.95008763  0.13570848  0.25486533    -0.00900
Br286      Br  0.96333358  0.19721306  0.29229380    -0.00900
C287        C  0.89828932  0.33917177  0.35170732    -0.02000
C288        C  0.90885214  0.31230345  0.34567504     0.07700
C289        C  0.89697741  0.30220177  0.30523469    -0.02100
C290        C  0.86692888  0.31690587  0.27524286    -0.02100
C291        C  0.84905622  0.34284694  0.28413610     0.07800
C292        C  0.87032687  0.35401108  0.32125394    -0.02300
Br293      Br  0.86384656  0.39066307  0.33001177    -0.00800
Br294      Br  0.92396006  0.35693150  0.40113659    -0.00900
Br295      Br  0.84315249  0.29772834  0.22727831    -0.00900
Br296      Br  0.91657994  0.26685603  0.29153695    -0.00900
C297        C  0.83475486  0.31637435  0.12673226    -0.02000
C298        C  0.88960717  0.31807667  0.12892395     0.07700
C299        C  0.91216040  0.33813928  0.15386555    -0.02100
C300        C  0.88087234  0.35279644  0.18197478    -0.02100
C301        C  0.82549728  0.34950811  0.18243151     0.07800
C302        C  0.80328664  0.33385948  0.14918254    -0.02300
Br303      Br  0.73532728  0.33891486  0.12357901    -0.00800
Br304      Br  0.80220464  0.28968322  0.09193570    -0.00900
Br305      Br  0.91315921  0.37967596  0.21589416    -0.00900
Br306      Br  0.98401762  0.34768420  0.14586766    -0.00900
C307        C  0.69372568  0.05166211  0.35454153    -0.02000
C308        C  0.63818136  0.05271756  0.35498405     0.07700
C309        C  0.61227877  0.06593940  0.32241637    -0.02100
C310        C  0.64116635  0.07800809  0.29032398    -0.02100
C311        C  0.69721247  0.07900878  0.29153059     0.07800
C312        C  0.72262519  0.06387032  0.32239703    -0.02300
Br313      Br  0.79590932  0.05545223  0.31532801    -0.00800
Br314      Br  0.73126946  0.03392153  0.39815374    -0.00900
Br315      Br  0.60090441  0.08808966  0.24270127    -0.00900
Br316      Br  0.53641099  0.06948186  0.32354072    -0.00900
C317        C  0.71803145  0.08480020  0.14664205    -0.02000
C318        C  0.71728468  0.07971321  0.19033456     0.07700
C319        C  0.69162518  0.05609212  0.20082394    -0.02100
C320        C  0.65090827  0.04564366  0.17519713    -0.02100
C321        C  0.64275977  0.05497908  0.13404382     0.07800
C322        C  0.67879798  0.07430540  0.11968225    -0.02300
Br323      Br  0.67272640  0.09023066  0.06480666    -0.00800
Br324      Br  0.77710614  0.10073623  0.11951019    -0.00900
Br325      Br  0.60755736  0.01869705  0.19888511    -0.00900
Br326      Br  0.72783774  0.03111657  0.23463730    -0.00900
C327        C  0.39446344  0.06462071  0.16912698    -0.02000
C328        C  0.37005350  0.05341565  0.13393539     0.07700
C329        C  0.31452932  0.05270916  0.13225161    -0.02100
C330        C  0.28443212  0.06357012  0.16497779    -0.02100
C331        C  0.30849193  0.07526999  0.20064392     0.07800
C332        C  0.36448471  0.07326988  0.20319261    -0.02300
Br333      Br  0.40294202  0.07397774  0.25433262    -0.00800
Br334      Br  0.47027011  0.06913948  0.17003764    -0.00900
Br335      Br  0.21024413  0.05737947  0.16449792    -0.00900
Br336      Br  0.27893976  0.03579856  0.08598459    -0.00900
C337        C  0.31926809  0.06358689  0.37419666    -0.02000
C338        C  0.35527143  0.04416523  0.35983942     0.07700
C339        C  0.34513170  0.03417452  0.31904874    -0.02100
C340        C  0.30828588  0.04668314  0.29207600    -0.02100
C341        C  0.28849881  0.07144151  0.30284188     0.07800
C342        C  0.28395593  0.07559271  0.34597903    -0.02300
Br343      Br  0.22445223  0.09452801  0.36686818    -0.00800
Br344      Br  0.31931151  0.07781315  0.43021436    -0.00900
Br345      Br  0.27260102  0.02600616  0.25045041    -0.00900
Br346      Br  0.37989457  0.00362025  0.29876081    -0.00900
C347        C  0.72955318  0.42631039  0.16828442    -0.02000
C348        C  0.71076549  0.42217055  0.20916138     0.07700
C349        C  0.66535298  0.43670111  0.21938723    -0.02100
C350        C  0.62955445  0.44452658  0.18782666    -0.02100
C351        C  0.64478126  0.44520330  0.14538858     0.07800
C352        C  0.69782589  0.43848061  0.13712093    -0.02300
Br353      Br  0.72948347  0.44725070  0.08462428    -0.00800
Br354      Br  0.80103958  0.41714481  0.15620374    -0.00900
Br355      Br  0.55928828  0.45273853  0.20536155    -0.00900
Br356      Br  0.66850693  0.46188781  0.26352142    -0.00900
C357        C  0.65272677  0.40733763  0.31534348    -0.02000
C358        C  0.70719782  0.41108782  0.30818305     0.07700
C359        C  0.73294198  0.43108969  0.33139992    -0.02100
C360        C  0.70543889  0.44539534  0.36219878    -0.02100
C361        C  0.65118951  0.44113330  0.36824223     0.07800
C362        C  0.62659445  0.42069888  0.34697043    -0.02300
Br363      Br  0.55692751  0.41017609  0.36322601    -0.00800
Br364      Br  0.60754347  0.39273395  0.27416905    -0.00900
Br365      Br  0.74200996  0.47079840  0.39570364    -0.00900
Br366      Br  0.79877243  0.44477778  0.31227356    -0.00900
C367        C  0.32301317  0.43838800  0.35232867    -0.02000
C368        C  0.37817457  0.44101677  0.34917299     0.07700
C369        C  0.40054212  0.43299541  0.31104251    -0.02100
C370        C  0.37066144  0.41876041  0.28051508    -0.02100
C371        C  0.31598790  0.41302808  0.28595187     0.07800
C372        C  0.29273396  0.42538989  0.32077403    -0.02300
Br373      Br  0.21799795  0.42812644  0.32237088    -0.00800
Br374      Br  0.28731372  0.45547309  0.39750180    -0.00900
Br375      Br  0.40920386  0.40800297  0.23286696    -0.00900
Br376      Br  0.47261019  0.44217209  0.29900512    -0.00900
C377        C  0.30289640  0.43237417  0.18498889    -0.02000
C378        C  0.30611117  0.40481586  0.18362022     0.07700
C379        C  0.33835212  0.39395632  0.15143158    -0.02100
C380        C  0.37409984  0.40972899  0.12952326    -0.02100
C381        C  0.37318803  0.43687529  0.13335345     0.07800
C382        C  0.33614230  0.44820239  0.16012948    -0.02300
Br383      Br  0.33009634  0.48536894  0.16210455    -0.00800
Br384      Br  0.24805425  0.44850986  0.21648421    -0.00900
Br385      Br  0.42729199  0.39398741  0.09476817    -0.00900
Br386      Br  0.33393235  0.35893754  0.13033544    -0.00900
C387        C  0.31623019  0.29842525  0.36304089    -0.02000
C388        C  0.37006683  0.29430438  0.35816587     0.07700
C389        C  0.39661618  0.30741051  0.32604556    -0.02100
C390        C  0.37234416  0.32816901  0.30634159    -0.02100
C391        C  0.31793113  0.32932795  0.30549817     0.07800
C392        C  0.29176895  0.31822926  0.34039473    -0.02300
Br393      Br  0.24537916  0.33776425  0.37532379    -0.00800
Br394      Br  0.27568265  0.27768961  0.40147355    -0.00900
Br395      Br  0.40684486  0.36087074  0.31714697    -0.00900
Br396      Br  0.46590851  0.29870603  0.30817836    -0.00900
C397        C  0.31649653  0.28694431  0.14711002    -0.02000
C398        C  0.37099327  0.28603923  0.14812492     0.07700
C399        C  0.39840792  0.29869196  0.18061013    -0.02100
C400        C  0.37284171  0.31733132  0.20500047    -0.02100
C401        C  0.31725354  0.31958787  0.20457237     0.07800
C402        C  0.28988648  0.30380068  0.17416325    -0.02300
Br403      Br  0.21813029  0.30749407  0.16003693    -0.00800
Br404      Br  0.27879801  0.26421525  0.10837043    -0.00900
Br405      Br  0.41702071  0.34589044  0.21957664    -0.00900
Br406      Br  0.47245360  0.29275452  0.18978477    -0.00900
C407        C  0.70337566  0.31774207  0.33462664    -0.02000
C408        C  0.67642885  0.33190833  0.30274434     0.07700
C409        C  0.62140209  0.33523791  0.30783898    -0.02100
C410        C  0.59913884  0.33097183  0.34672756    -0.02100
C411        C  0.62550651  0.31598379  0.37597831     0.07800
C412        C  0.67773393  0.30943028  0.37056965    -0.02300
Br413      Br  0.71355210  0.28888544  0.41287815    -0.00800
Br414      Br  0.77150679  0.30414506  0.32794500    -0.00900
Br415      Br  0.53213722  0.34523344  0.36101260    -0.00900
Br416      Br  0.57050831  0.33281620  0.26322846    -0.00900
C417        C  0.62344533  0.34734843  0.17867031    -0.02000
C418        C  0.66283812  0.33557995  0.20401665     0.07700
C419        C  0.67068910  0.30841864  0.19979356    -0.02100
C420        C  0.64539135  0.29494617  0.16753198    -0.02100
C421        C  0.60103882  0.30581033  0.14869526     0.07800
C422        C  0.58880994  0.33190030  0.15524614    -0.02300
Br423      Br  0.52729104  0.34682990  0.12849647    -0.00800
Br424      Br  0.61573302  0.38381437  0.17233882    -0.00900
Br425      Br  0.68086987  0.26623627  0.14117194    -0.00900
Br426      Br  0.71536014  0.28839330  0.23512039    -0.00900
C427        C  0.63239722  0.16919916  0.29739140    -0.02000
C428        C  0.68641970  0.16353395  0.30409787     0.07700
C429        C  0.71312950  0.17762156  0.33640693    -0.02100
C430        C  0.68801410  0.19654050  0.35994394    -0.02100
C431        C  0.63496357  0.20121842  0.35344002     0.07800
C432        C  0.60811603  0.18919615  0.31991776    -0.02300
Br433      Br  0.54105443  0.20203441  0.30086800    -0.00800
Br434      Br  0.58852535  0.14985440  0.25960651    -0.00900
Br435      Br  0.72728733  0.21855515  0.39909405    -0.00900
Br436      Br  0.78441513  0.17394692  0.35026999    -0.00900
C437        C  0.64026163  0.20592242  0.18171564    -0.02000
C438        C  0.63727435  0.19633588  0.14017493     0.07700
C439        C  0.65780141  0.17174229  0.13207226    -0.02100
C440        C  0.66913752  0.15591664  0.16557579    -0.02100
C441        C  0.68614249  0.16655597  0.20392659     0.07800
C442        C  0.67328138  0.19325912  0.21087579    -0.02300
Br443      Br  0.70115196  0.21522673  0.25440539    -0.00800
Br444      Br  0.59658211  0.23396124  0.20140857    -0.00900
Br445      Br  0.62993765  0.12445390  0.16423794    -0.00900
Br446      Br  0.65892471  0.15597418  0.07770516    -0.00900
C447        C  0.39551688  0.14392279  0.31679707    -0.02000
C448        C  0.36489526  0.15473289  0.28333320     0.07700
C449        C  0.37137428  0.18205187  0.27584302    -0.02100
C450        C  0.39704841  0.19790739  0.30616545    -0.02100
C451        C  0.42309736  0.18641933  0.34041589     0.07800
C452        C  0.42854862  0.15950667  0.34157637    -0.02300
Br453      Br  0.48089853  0.14413696  0.37860860    -0.00800
Br454      Br  0.39112654  0.10891136  0.33534875    -0.00900
Br455      Br  0.39048088  0.23524056  0.30350800    -0.00900
Br456      Br  0.34159078  0.19975328  0.22835203    -0.00900
C457        C  0.34751483  0.17251087  0.11837086    -0.02000
C458        C  0.40200280  0.17191554  0.12035488     0.07700
C459        C  0.42846271  0.15832900  0.15152461    -0.02100
C460        C  0.40008913  0.14638965  0.18356051    -0.02100
C461        C  0.34373208  0.14698993  0.18329686     0.07800
C462        C  0.31835753  0.15900528  0.14794101    -0.02300
Br463      Br  0.24446979  0.15975437  0.13618320    -0.00800
Br464      Br  0.31278763  0.19432216  0.07662658    -0.00900
Br465      Br  0.44310024  0.13021114  0.22532075    -0.00900
Br466      Br  0.50441942  0.15670196  0.14946505    -0.00900
O467        O  0.42084776  0.18188312  0.55224383    -0.75400
O468        O  0.45575218  0.20610071  0.60586793    -0.54300
C469        C  0.42842614  0.18728619  0.59082237     0.78300
O470        O  0.62198140  0.20912711  0.92607261    -0.60000
O471        O  0.57320120  0.23142127  0.87842145    -0.53000
C472        C  0.60925601  0.21524531  0.88839941     0.70300
O473        O  0.62728266  0.20626126  0.56785888    -0.74600
O474        O  0.56685760  0.21741508  0.61577367    -0.55100
C475        C  0.61072766  0.20759202  0.60562005     0.76300
O476        O  0.42787901  0.19384328  0.91325962    -0.59700
O477        O  0.46649676  0.22402856  0.87160029    -0.48600
C478        C  0.43919182  0.20335594  0.87722195     0.72900
Zr479      Zr  0.44348620  0.20124605  0.48715173     2.54700
O480        O  0.46172318  0.15489647  0.48170185    -0.80300
O481        O  0.35214542  0.19193801  0.98046641    -0.93700
Zr482      Zr  0.59608170  0.21512289  0.49663302     2.64700
O483        O  0.59924901  0.16780541  0.49352000    -0.98700
O484        O  0.69024096  0.23203195  0.99773957    -0.80700
O485        O  0.51856661  0.20424280  0.53224035    -0.84100
O486        O  0.52395571  0.21184650  0.95345842    -2.18800
O487        O  0.38294394  0.28746914  0.93010576    -0.67500
O488        O  0.44050671  0.27199830  0.88265720    -0.52000
C489        C  0.39861938  0.28367525  0.89247372     0.71300
O490        O  0.58285125  0.30114677  0.57874909    -0.60400
O491        O  0.55170696  0.26936478  0.62154426    -0.52400
C492        C  0.57645476  0.29058537  0.61438065     0.73100
O493        O  0.59864345  0.31078568  0.94540568    -0.71800
O494        O  0.56107379  0.28728169  0.89225567    -0.50400
C495        C  0.59191565  0.30501638  0.90702904     0.74500
O496        O  0.39059492  0.28380048  0.57522655    -0.67100
O497        O  0.44034301  0.25976675  0.62024943    -0.54300
C498        C  0.40343353  0.27576003  0.61229453     0.72900
Zr499      Zr  0.41143312  0.27736769  0.00133008     2.77500
O500        O  0.39934045  0.32378204  0.50297114    -0.97900
O501        O  0.31828967  0.26644454  0.00173285    -0.78700
Zr502      Zr  0.56293800  0.29387267  0.00803274     2.70100
O503        O  0.53368034  0.33875131  0.01424179    -0.79900
O504        O  0.65596136  0.30536803  0.52311494    -0.99000
Zr505      Zr  0.50376023  0.24093458  0.57551566     2.21500
Zr506      Zr  0.50916450  0.25254602  0.92113130     2.11100
O507        O  0.48846081  0.28900613  0.96390203    -2.47700
O508        O  0.48947228  0.28250587  0.54514284    -0.79700
O509        O  0.42949001  0.24246893  0.95513454    -0.71900
O510        O  0.58311102  0.25105025  0.54106535    -2.32900
O511        O  0.42651383  0.23621127  0.53363184    -2.29100
O512        O  0.58495623  0.25893528  0.96325085    -0.73700
H513        H  0.52960966  0.19808778  0.93351736     0.78300
H514        H  0.61270042  0.25331118  0.56002849     0.79400
H515        H  0.48300520  0.30449964  0.94743971     0.81600
H516        H  0.39632516  0.23242154  0.55042044     0.79200
H517        H  0.70025082  0.23303949  0.51424096     0.42300
H518        H  0.65295190  0.32511821  0.02956789     0.41300
H519        H  0.53639408  0.34214697  0.53117101     0.40900
H520        H  0.41506268  0.33086323  0.02519803     0.38900
H521        H  0.31675822  0.24753459  0.99581593     0.42000
H522        H  0.33287983  0.20853112  0.49287100     0.36800
H523        H  0.42721956  0.14673636  0.47525591     0.42900
H524        H  0.60254826  0.16575823  0.97056894     0.39300
H525        H  0.40085052  0.33070193  0.97749616     0.44200
H526        H  0.34159558  0.17834572  0.49637050     0.43000
H527        H  0.59126847  0.16188026  0.52214610     0.43100
H528        H  0.66970220  0.29616817  0.03758159     0.43400
O529        O  0.40107920  0.44649492  0.56390446    -0.75400
O530        O  0.44530556  0.46747779  0.61689653    -0.54300
C531        C  0.40973849  0.45152241  0.60285451     0.78300
O532        O  0.62449625  0.44790914  0.93745445    -0.60000
O533        O  0.57591191  0.46582550  0.88433031    -0.53000
C534        C  0.61454846  0.45188310  0.89863764     0.70300
O535        O  0.62153286  0.45057335  0.57300217    -0.74600
O536        O  0.57259519  0.47168049  0.62097986    -0.55100
C537        C  0.61143700  0.45684529  0.61115928     0.76300
O538        O  0.39652625  0.44758662  0.92192832    -0.59700
O539        O  0.44784987  0.46827376  0.87464741    -0.52800
C540        C  0.40918201  0.45307586  0.88382223     0.72900
Zr541      Zr  0.43398738  0.45649312  0.49432941     2.54700
O542        O  0.45530658  0.41041974  0.49064121    -0.80300
O543        O  0.33062740  0.46591360  0.99295042    -0.93700
Zr544      Zr  0.58654613  0.45933566  0.50190231     2.64700
O545        O  0.56884117  0.41275715  0.49918410    -0.98700
O546        O  0.65645285  0.42706780  0.00385578    -0.80700
O547        O  0.50836415  0.45704607  0.54079806    -0.84100
O548        O  0.50368711  0.45571809  0.95580373    -2.18800
O549        O  0.38930470  0.03732255  0.92679967    -0.67500
O550        O  0.43936884  0.02138736  0.87480854    -0.52000
C551        C  0.39811322  0.03357053  0.88814845     0.71300
O552        O  0.61464481  0.04455589  0.56658651    -0.60400
O553        O  0.56687681  0.02610319  0.61786206    -0.52400
C554        C  0.60497354  0.04089580  0.60536595     0.73100
O555        O  0.61818715  0.04520460  0.92620139    -0.71800
O556        O  0.57199373  0.02297075  0.87587383    -0.50400
C557        C  0.60889735  0.03886120  0.88780233     0.74500
O558        O  0.39616254  0.04480912  0.56519950    -0.67100
O559        O  0.44097249  0.02157532  0.61446504    -0.54300
C560        C  0.40511431  0.03795853  0.60333681     0.72900
Zr561      Zr  0.42930530  0.03407629  0.99487052     2.77500
O562        O  0.43388271  0.08015257  0.49128835    -0.97900
O563        O  0.33423634  0.03079866  0.49693563    -0.78700
Zr564      Zr  0.58151863  0.03604299  0.99549395     2.70100
O565        O  0.56418991  0.08262912  0.99562613    -0.79900
O566        O  0.67870165  0.03732928  0.50216814    -0.99000
Zr567      Zr  0.50663025  0.49668792  0.58089053     2.21500
Zr568      Zr  0.50977289  0.49499063  0.91513178     2.11100
O569        O  0.50532775  0.03550483  0.95229106    -2.47700
O570        O  0.50693650  0.03492638  0.53828896    -0.79700
O571        O  0.43181633  0.49731884  0.95524172    -0.71900
O572        O  0.58488513  0.49822581  0.54073802    -2.32900
O573        O  0.43008810  0.49497959  0.53612583    -2.29100
O574        O  0.58537099  0.49165697  0.95995173    -0.73700
H575        H  0.50262866  0.44056057  0.93763578     0.78300
H576        H  0.61590732  0.49883675  0.55834287     0.79400
H577        H  0.50472596  0.05036592  0.93391059     0.81600
H578        H  0.39832535  0.49466808  0.55230582     0.79200
H579        H  0.69685137  0.46811287  0.49927561     0.42300
H580        H  0.69082982  0.02656067  0.98587839     0.41300
H581        H  0.53749347  0.08493869  0.50326125     0.40900
H582        H  0.44468493  0.08466560  0.95961790     0.38900
H583        H  0.32020691  0.02208813  0.98725399     0.42000
H584        H  0.32425970  0.45369559  0.51371692     0.36800
H585        H  0.43930159  0.40435931  0.46396960     0.42900
H586        H  0.56423049  0.39873625  0.99049313     0.39300
H587        H  0.41179578  0.08880539  0.00007299     0.44200
H588        H  0.34019777  0.42582190  0.49833999     0.43000
H589        H  0.58458254  0.40585527  0.52530939     0.43100
H590        H  0.68485277  0.05697038  0.98289099     0.43400
O591        O  0.90616697  0.30157506  0.56117296    -0.75400
O592        O  0.94448955  0.27894128  0.61495781    -0.54300
C593        C  0.91431731  0.29702456  0.60032968     0.78300
O594        O  0.92001667  0.18763978  0.93143821    -0.60000
O595        O  0.96053636  0.21005749  0.88001632    -0.53000
C596        C  0.93416820  0.19021861  0.89300192     0.70300
O597        O  0.90142848  0.19250205  0.56766160    -0.74600
O598        O  0.94655336  0.21568619  0.61743756    -0.55100
C599        C  0.91458411  0.19725861  0.60603381     0.76300
O600        O  0.92033383  0.30194471  0.91879854    -0.59700
O601        O  0.96174084  0.27506401  0.87370505    -0.52800
C602        C  0.93267859  0.29509828  0.88125316     0.72900
Zr603      Zr  0.93225124  0.28617434  0.49206341     2.54700
O604        O  0.83701637  0.28739655  0.48501545    -0.80300
O605        O  0.93920171  0.33458650  0.98810105    -0.93700
Zr606      Zr  0.92080805  0.21045542  0.49790146     2.64700
O607        O  0.83327450  0.22824008  0.48678404    -0.98700
O608        O  0.86812742  0.17204446  0.00159036    -0.80700
O609        O  0.92435694  0.24944327  0.53757308    -0.84100
O610        O  0.92881906  0.24773914  0.95314881    -2.18800
O611        O  0.10565308  0.29938460  0.93074309    -0.67500
O612        O  0.06566795  0.27456264  0.88034841    -0.52000
C613        C  0.09476034  0.29394376  0.89218455     0.71300
O614        O  0.09852341  0.19080417  0.57793542    -0.60400
O615        O  0.05926254  0.21797805  0.62440752    -0.52400
C616        C  0.08910943  0.19826389  0.61575403     0.73100
O617        O  0.10349656  0.18761609  0.93732528    -0.71800
O618        O  0.06819174  0.21183468  0.88410993    -0.50400
C619        C  0.09688584  0.19304479  0.89821914     0.74500
O620        O  0.10144992  0.30189837  0.56986639    -0.67100
O621        O  0.05288014  0.28091075  0.61852135    -0.54300
C622        C  0.08466145  0.29927626  0.60758003     0.72900
Zr623      Zr  0.09196230  0.28057515  0.00076942     2.77500
O624        O  0.17899428  0.26127734  0.00365218    -0.97900
O625        O  0.11278254  0.32678020  0.49226986    -0.78700
Zr626      Zr  0.07821406  0.20460658  0.00618909     2.70100
O627        O  0.17365368  0.20453375  0.01129882    -0.79900
O628        O  0.07168264  0.15766513  0.50998176    -0.99000
Zr629      Zr  0.00224575  0.24725566  0.58116400     2.21500
Zr630      Zr  0.01064826  0.24360872  0.91774861     2.11100
O631        O  0.08796946  0.24144106  0.96139149    -2.47700
O632        O  0.08334883  0.24426387  0.54476026    -0.79700
O633        O  0.01627841  0.28320756  0.95668940    -0.71900
O634        O  0.99764283  0.20789678  0.54122479    -2.32900
O635        O  0.00767486  0.28471694  0.53635341    -2.29100
O636        O  0.00192804  0.20654705  0.96260514    -0.73700
H637        H  0.89976497  0.24817504  0.93332171     0.78300
H638        H  0.99650168  0.19269170  0.55876860     0.79400
H639        H  0.11898776  0.23995349  0.94455469     0.81600
H640        H  0.00732612  0.30064853  0.55220119     0.79200
H641        H  0.89112557  0.15740005  0.50841710     0.42300
H642        H  0.03801945  0.15413308  0.02545028     0.41300
H643        H  0.18250661  0.21057675  0.53739327     0.40900
H644        H  0.20070337  0.27251917  0.98556447     0.38900
H645        H  0.12061667  0.33379283  0.98867072     0.42000
H646        H  0.98077792  0.33638604  0.49008014     0.36800
H647        H  0.82891172  0.30601297  0.48046599     0.42900
H648        H  0.81753676  0.21789502  0.96790522     0.39300
H649        H  0.19203905  0.26492523  0.03233606     0.44200
H650        H  0.93240152  0.33982130  0.51911034     0.43000
H651        H  0.81108550  0.21923616  0.50747363     0.43100
H652        H  0.06008698  0.15176751  0.98042503     0.43400
C653        C  0.26192333  0.11992345  0.71018848     0.45300
H654        H  0.25192570  0.11643759  0.67725840    -0.03700
C655        C  0.28196229  0.12370940  0.78840089     0.45400
H656        H  0.29114007  0.12538570  0.82190517    -0.03700
C657        C  0.31173730  0.13630126  0.71855687    -0.17400
C658        C  0.21669020  0.13453585  0.73496576    -0.17100
C659        C  0.27763480  0.09315631  0.72935970    -0.17500
C660        C  0.32310019  0.13885947  0.76116147    -0.17500
C661        C  0.22812886  0.13608715  0.77756088    -0.17100
C662        C  0.28088152  0.09451662  0.77249196    -0.17400
C663        C  0.75820123  0.12765191  0.71221346     0.45300
H664        H  0.76013027  0.13076425  0.67855764    -0.03700
C665        C  0.75562226  0.12345360  0.79176639     0.45400
H666        H  0.75140097  0.12202482  0.82577982    -0.03700
C667        C  0.72161770  0.14812582  0.73232653    -0.17400
C668        C  0.73855991  0.09975524  0.72493428    -0.17100
C669        C  0.81217717  0.13325066  0.73265598    -0.17500
C670        C  0.72027621  0.14620324  0.77537831    -0.17500
C671        C  0.73451877  0.09832793  0.76839614    -0.17100
C672        C  0.81333647  0.12953712  0.77590299    -0.17400
C673        C  0.25517828  0.36177136  0.70532709     0.45300
H674        H  0.25075108  0.35837221  0.67171115    -0.03700
C675        C  0.25976952  0.36951435  0.78435300     0.45400
H676        H  0.26173146  0.37426297  0.81775579    -0.03700
C677        C  0.29119588  0.34160315  0.72818798    -0.17400
C678        C  0.28105022  0.38850672  0.71575466    -0.17100
C679        C  0.20002130  0.35979176  0.72643302    -0.17500
C680        C  0.29281545  0.34641177  0.77150290    -0.17500
C681        C  0.28396944  0.39276287  0.75892145    -0.17100
C682        C  0.20345943  0.36090074  0.76937742    -0.17400
C683        C  0.75333827  0.36443408  0.78797631     0.45300
H684        H  0.76052807  0.36251202  0.82208980    -0.03700
C685        C  0.73654246  0.37021441  0.70943635     0.45400
H686        H  0.72824250  0.37361660  0.67641331    -0.03700
C687        C  0.70723419  0.34725578  0.77224507    -0.17400
C688        C  0.73568105  0.39293674  0.77594304    -0.17100
C689        C  0.80163026  0.35499257  0.76093281    -0.17500
C690        C  0.69841139  0.35053676  0.72989760    -0.17500
C691        C  0.73016874  0.39643975  0.73329662    -0.17100
C692        C  0.79144815  0.35826621  0.71798789    -0.17400
C693        C  0.12157360  0.34433793  0.62860809    -0.02000
C694        C  0.10220259  0.31915895  0.64015970     0.07700
C695        C  0.09714730  0.31451617  0.68388429    -0.02100
C696        C  0.11464820  0.33338785  0.71293857    -0.02100
C697        C  0.15117784  0.35247265  0.70052758     0.07800
C698        C  0.14694123  0.36054653  0.65868046    -0.02300
Br699      Br  0.17186092  0.39487678  0.64414284    -0.00800
Br700      Br  0.11198514  0.35814643  0.57332328    -0.00900
Br701      Br  0.06070290  0.34423539  0.75045206    -0.00900
Br702      Br  0.06419598  0.28394218  0.70709378    -0.00900
C703        C  0.14747187  0.29947818  0.82693891    -0.02000
C704        C  0.11842718  0.31084896  0.85903999     0.07700
C705        C  0.11319544  0.33821704  0.85953955    -0.02100
C706        C  0.13706771  0.35398927  0.82854142    -0.02100
C707        C  0.17004352  0.34312824  0.79772751     0.07800
C708        C  0.17372390  0.31519247  0.79734364    -0.02300
Br709      Br  0.21610596  0.29634904  0.75934469    -0.00800
Br710      Br  0.15532282  0.26182737  0.82588856    -0.00900
Br711      Br  0.11933636  0.39009828  0.82625457    -0.00900
Br712      Br  0.07320266  0.35436061  0.90303615    -0.00900
C713        C  0.14128826  0.14278900  0.81661259    -0.02000
C714        C  0.19461012  0.14994006  0.81070555     0.07700
C715        C  0.21555829  0.16896524  0.83934717    -0.02100
C716        C  0.18289878  0.18338717  0.86603099    -0.02100
C717        C  0.12911952  0.17798458  0.86794134     0.07800
C718        C  0.10910559  0.15657208  0.84502340    -0.02300
Br719      Br  0.03989068  0.14395208  0.85706591    -0.00800
Br720      Br  0.11520771  0.11066268  0.79341233    -0.00900
Br721      Br  0.21229690  0.21010567  0.90270638    -0.00900
Br722      Br  0.28846749  0.17520890  0.84799550    -0.00900
C723        C  0.10642204  0.15565679  0.65568387    -0.02000
C724        C  0.11512476  0.18278700  0.65128096     0.07700
C725        C  0.15181720  0.19443425  0.67916712    -0.02100
C726        C  0.17935152  0.17942647  0.71004344    -0.02100
C727        C  0.17490929  0.15163346  0.71184686     0.07800
C728        C  0.13557559  0.14041737  0.68521947    -0.02300
Br729      Br  0.11925420  0.10407731  0.68931657    -0.00800
Br730      Br  0.05497954  0.13897750  0.61986161    -0.00900
Br731      Br  0.22465497  0.19793533  0.74799543    -0.00900
Br732      Br  0.17057083  0.23050284  0.67057619    -0.00900
C733        C  0.89270666  0.15278353  0.63774256    -0.02000
C734        C  0.89178656  0.18040936  0.63973730     0.07700
C735        C  0.87124133  0.19215199  0.67569491    -0.02100
C736        C  0.85022419  0.17682462  0.70806026    -0.02100
C737        C  0.84928888  0.14924234  0.70586268     0.07800
C738        C  0.87365930  0.13749020  0.67130491    -0.02300
Br739      Br  0.88754143  0.10057149  0.67331194    -0.00800
Br740      Br  0.91957581  0.13538100  0.58931265    -0.00900
Br741      Br  0.82519895  0.19469965  0.75575249    -0.00900
Br742      Br  0.86740750  0.22975240  0.67936031    -0.00900
C743        C  0.89555477  0.14521332  0.87644876    -0.02000
C744        C  0.91781304  0.16895214  0.86222454     0.07700
C745        C  0.92527196  0.17064832  0.81841430    -0.02100
C746        C  0.90392956  0.15112177  0.79181060    -0.02100
C747        C  0.86135738  0.13551624  0.80535016     0.07800
C748        C  0.86364608  0.12980834  0.84915033    -0.02300
Br749      Br  0.82253714  0.10346154  0.87582147    -0.00800
Br750      Br  0.91285437  0.13193998  0.93138043    -0.00900
Br751      Br  0.95286358  0.13619646  0.75355274    -0.00900
Br752      Br  0.96967943  0.19665030  0.79322269    -0.00900
C753        C  0.90129744  0.33839131  0.84919541    -0.02000
C754        C  0.91061024  0.31134811  0.84473642     0.07700
C755        C  0.89696976  0.30029766  0.80534075    -0.02100
C756        C  0.86606233  0.31442647  0.77520336    -0.02100
C757        C  0.84865104  0.34062586  0.78312756     0.07800
C758        C  0.87217073  0.35257507  0.81867448    -0.02300
Br759      Br  0.86911461  0.38952276  0.82382111    -0.00800
Br760      Br  0.93141088  0.35721198  0.89593344    -0.00900
Br761      Br  0.84461110  0.29479535  0.72712426    -0.00900
Br762      Br  0.91716386  0.26480078  0.79300833    -0.00900
C763        C  0.82941228  0.31322558  0.62681162    -0.02000
C764        C  0.88423682  0.31358394  0.62977331     0.07700
C765        C  0.90862131  0.33267661  0.65530782    -0.02100
C766        C  0.87871254  0.34866625  0.68210302    -0.02100
C767        C  0.82318808  0.34684671  0.68195698     0.07800
C768        C  0.79955703  0.33154714  0.64883680    -0.02300
Br769      Br  0.73336535  0.33875740  0.62155537    -0.00800
Br770      Br  0.79494427  0.28722704  0.59178714    -0.00900
Br771      Br  0.91382359  0.37503578  0.71526324    -0.00900
Br772      Br  0.98236436  0.33828501  0.65123415    -0.00900
C773        C  0.69738207  0.05070007  0.85574578    -0.02000
C774        C  0.64175379  0.05159727  0.85483842     0.07700
C775        C  0.61698669  0.06472531  0.82158470    -0.02100
C776        C  0.64692592  0.07755896  0.79091483    -0.02100
C777        C  0.70268399  0.07847458  0.79319080     0.07800
C778        C  0.72731556  0.06289546  0.82408853    -0.02300
Br779      Br  0.80026728  0.05351680  0.81777351    -0.00800
Br780      Br  0.73348304  0.03327150  0.90057414    -0.00900
Br781      Br  0.60913220  0.09084423  0.74405267    -0.00900
Br782      Br  0.54107353  0.06729048  0.81994527    -0.00900
C783        C  0.71620838  0.08512434  0.64828194    -0.02000
C784        C  0.71843997  0.07936286  0.69169396     0.07700
C785        C  0.69509844  0.05499945  0.70174361    -0.02100
C786        C  0.65469759  0.04381557  0.67608980    -0.02100
C787        C  0.64274798  0.05422230  0.63607618     0.07800
C788        C  0.67567369  0.07491828  0.62230312    -0.02300
Br789      Br  0.66455045  0.09238348  0.56917049    -0.00800
Br790      Br  0.77564817  0.09889662  0.61900708    -0.00900
Br791      Br  0.61889662  0.01336500  0.69631833    -0.00900
Br792      Br  0.73461766  0.03087419  0.73483785    -0.00900
C793        C  0.39565539  0.05850301  0.67445465    -0.02000
C794        C  0.37214650  0.04997607  0.63690036     0.07700
C795        C  0.31699349  0.05204640  0.63263745    -0.02100
C796        C  0.28678517  0.06454117  0.66374348    -0.02100
C797        C  0.31004087  0.07476446  0.70093779     0.07800
C798        C  0.36508501  0.06963627  0.70645098    -0.02300
Br799      Br  0.40225853  0.07376373  0.75770361    -0.00800
Br800      Br  0.47151115  0.05576457  0.68189715    -0.00900
Br801      Br  0.21199487  0.06440808  0.65703739    -0.00900
Br802      Br  0.28153378  0.03566070  0.58576340    -0.00900
C803        C  0.32272341  0.06518979  0.87337557    -0.02000
C804        C  0.35646472  0.04480822  0.85912893     0.07700
C805        C  0.34374142  0.03392356  0.81939956    -0.02100
C806        C  0.30672793  0.04651383  0.79259380    -0.02100
C807        C  0.28863252  0.07169301  0.80301839     0.07800
C808        C  0.28594481  0.07652475  0.84593396    -0.02300
Br809      Br  0.22668459  0.09506075  0.86785037    -0.00800
Br810      Br  0.32947663  0.08241343  0.92703342    -0.00900
Br811      Br  0.27110371  0.02642727  0.75004878    -0.00900
Br812      Br  0.37632805  0.00250084  0.80034404    -0.00900
C813        C  0.73066493  0.42564185  0.66877324    -0.02000
C814        C  0.71084380  0.42087463  0.70906980     0.07700
C815        C  0.66582036  0.43568252  0.71940464    -0.02100
C816        C  0.63076113  0.44422091  0.68771805    -0.02100
C817        C  0.64742625  0.44634899  0.64574205     0.07800
C818        C  0.70056853  0.43927360  0.63813845    -0.02300
Br819      Br  0.73508836  0.44953222  0.58766966    -0.00800
Br820      Br  0.80167724  0.41538192  0.65706376    -0.00900
Br821      Br  0.56022531  0.45223076  0.70454382    -0.00900
Br822      Br  0.67075885  0.46089718  0.76354403    -0.00900
C823        C  0.64996106  0.40601107  0.81125127    -0.02000
C824        C  0.70529727  0.40897880  0.80738083     0.07700
C825        C  0.73043698  0.42747089  0.83391095    -0.02100
C826        C  0.70215425  0.44023784  0.86580231    -0.02100
C827        C  0.64712790  0.43718326  0.86844815     0.07800
C828        C  0.62197593  0.41916183  0.84223194    -0.02300
Br829      Br  0.54848171  0.41155198  0.85060831    -0.00800
Br830      Br  0.60766065  0.39080767  0.76846744    -0.00900
Br831      Br  0.73926386  0.46147749  0.90600382    -0.00900
Br832      Br  0.79725713  0.44181370  0.81862826    -0.00900
C833        C  0.32190504  0.43722984  0.85167197    -0.02000
C834        C  0.37675176  0.44110347  0.84814194     0.07700
C835        C  0.39870788  0.43529585  0.80869989    -0.02100
C836        C  0.37034509  0.42012295  0.77852802    -0.02100
C837        C  0.31599911  0.41370319  0.78388436     0.07800
C838        C  0.29214967  0.42556208  0.81872933    -0.02300
Br839      Br  0.21792309  0.43060210  0.81749862    -0.00800
Br840      Br  0.28504111  0.45092727  0.89911733    -0.00900
Br841      Br  0.41083303  0.40864603  0.73231465    -0.00900
Br842      Br  0.46597912  0.44997173  0.79303172    -0.00900
C843        C  0.30588351  0.43263098  0.68337732    -0.02000
C844        C  0.30779709  0.40498303  0.68199814     0.07700
C845        C  0.34014600  0.39377458  0.65022455    -0.02100
C846        C  0.37699812  0.40914287  0.62877864    -0.02100
C847        C  0.37703805  0.43630963  0.63249661     0.07800
C848        C  0.34002999  0.44807846  0.65872611    -0.02300
Br849      Br  0.33489921  0.48538656  0.65970716    -0.00800
Br850      Br  0.25211187  0.44967338  0.71471629    -0.00900
Br851      Br  0.43017544  0.39276362  0.59478155    -0.00900
Br852      Br  0.33421835  0.35887089  0.62881013    -0.00900
C853        C  0.31506556  0.30001308  0.86269266    -0.02000
C854        C  0.36877086  0.29540980  0.85811523     0.07700
C855        C  0.39614537  0.30827198  0.82614135    -0.02100
C856        C  0.37270073  0.32899834  0.80578756    -0.02100
C857        C  0.31844792  0.33050877  0.80486757     0.07800
C858        C  0.29167367  0.31998561  0.83989906    -0.02300
Br859      Br  0.24725366  0.34043625  0.87520953    -0.00800
Br860      Br  0.27303759  0.27974317  0.90070513    -0.00900
Br861      Br  0.40783575  0.36170605  0.81501894    -0.00900
Br862      Br  0.46416272  0.29808178  0.80739208    -0.00900
C863        C  0.31958382  0.28774047  0.64570233    -0.02000
C864        C  0.37407195  0.28620415  0.64815555     0.07700
C865        C  0.40040210  0.29826039  0.68175699    -0.02100
C866        C  0.37460718  0.31733178  0.70519913    -0.02100
C867        C  0.31905006  0.31980231  0.70401177     0.07800
C868        C  0.29225992  0.30407797  0.67321300    -0.02300
Br869      Br  0.21995857  0.30675391  0.66016845    -0.00800
Br870      Br  0.28269903  0.26670099  0.60414382    -0.00900
Br871      Br  0.41860693  0.34628574  0.71782206    -0.00900
Br872      Br  0.47338169  0.29110101  0.69356053    -0.00900
C873        C  0.70210164  0.31849011  0.83645190    -0.02000
C874        C  0.67556084  0.33113312  0.80274727     0.07700
C875        C  0.62042797  0.33451300  0.80672391    -0.02100
C876        C  0.59742831  0.33202875  0.84567735    -0.02100
C877        C  0.62342684  0.31880774  0.87715587     0.07800
C878        C  0.67604750  0.31229592  0.87333782    -0.02300
Br879      Br  0.71185576  0.29473241  0.91895465    -0.00800
Br880      Br  0.77003833  0.30399446  0.83110784    -0.00900
Br881      Br  0.52943979  0.34600646  0.85716309    -0.00900
Br882      Br  0.57053298  0.33016237  0.76182401    -0.00900
C883        C  0.62362027  0.34592567  0.67752096    -0.02000
C884        C  0.66275425  0.33436670  0.70344096     0.07700
C885        C  0.67090049  0.30721598  0.69991050    -0.02100
C886        C  0.64538263  0.29332361  0.66818795    -0.02100
C887        C  0.60120078  0.30405852  0.64878586     0.07800
C888        C  0.58866413  0.33013206  0.65502689    -0.02300
Br889      Br  0.52599459  0.34448426  0.62947643    -0.00800
Br890      Br  0.61856728  0.38233792  0.66704811    -0.00900
Br891      Br  0.68010820  0.26392306  0.64342310    -0.00900
Br892      Br  0.71789937  0.28819215  0.73485780    -0.00900
C893        C  0.63589565  0.16993534  0.79799898    -0.02000
C894        C  0.69008574  0.16416829  0.80447931     0.07700
C895        C  0.71656110  0.17823560  0.83706817    -0.02100
C896        C  0.69096929  0.19677281  0.86151126    -0.02100
C897        C  0.63757544  0.20137884  0.85537826     0.07800
C898        C  0.61093702  0.18925385  0.82183416    -0.02300
Br899      Br  0.54160794  0.20045797  0.80564289    -0.00800
Br900      Br  0.59276661  0.15241448  0.75738289    -0.00900
Br901      Br  0.73031764  0.21841355  0.90123120    -0.00900
Br902      Br  0.78871659  0.17550706  0.84901169    -0.00900
C903        C  0.64307553  0.20490061  0.68139234    -0.02000
C904        C  0.64327084  0.19601766  0.63922494     0.07700
C905        C  0.67141795  0.17332159  0.63083435    -0.02100
C906        C  0.67984178  0.15667842  0.66381126    -0.02100
C907        C  0.69281891  0.16674718  0.70339203     0.07800
C908        C  0.67716117  0.19301254  0.71077813    -0.02300
Br909      Br  0.70385317  0.21551731  0.75411844    -0.00800
Br910      Br  0.59480669  0.23077119  0.70175355    -0.00900
Br911      Br  0.63272899  0.12796522  0.66145696    -0.00900
Br912      Br  0.68786580  0.16025605  0.57634470    -0.00900
C913        C  0.39667164  0.14526253  0.81628878    -0.02000
C914        C  0.36642091  0.15552180  0.78215010     0.07700
C915        C  0.37305349  0.18286327  0.77428970    -0.02100
C916        C  0.39647666  0.19915445  0.80526986    -0.02100
C917        C  0.42164824  0.18811176  0.84031359     0.07800
C918        C  0.42831416  0.16126661  0.84158193    -0.02300
Br919      Br  0.48102375  0.14651231  0.87902046    -0.00800
Br920      Br  0.39339431  0.11047414  0.83545280    -0.00900
Br921      Br  0.38876126  0.23639885  0.80178830    -0.00900
Br922      Br  0.35043333  0.19999503  0.72394921    -0.00900
C923        C  0.34578784  0.17336847  0.61960504    -0.02000
C924        C  0.40013052  0.17184321  0.62010602     0.07700
C925        C  0.42704699  0.15699973  0.64942247    -0.02100
C926        C  0.39931892  0.14517560  0.68177636    -0.02100
C927        C  0.34312302  0.14627686  0.68231534     0.07800
C928        C  0.31709439  0.15855049  0.64753875    -0.02300
Br929      Br  0.24397919  0.15640560  0.63223019    -0.00800
Br930      Br  0.31071261  0.19804246  0.58281954    -0.00900
Br931      Br  0.44251309  0.12853076  0.72288437    -0.00900
Br932      Br  0.50253600  0.15390661  0.64482902    -0.00900
O933        O  0.42238809  0.68168250  0.04806286    -0.75400
O934        O  0.45472072  0.70570715  0.10288750    -0.54300
C935        C  0.42917201  0.68649521  0.08705292     0.78300
O936        O  0.62311134  0.71066256  0.41960800    -0.60000
O937        O  0.57282579  0.73308472  0.37306549    -0.53000
C938        C  0.60975430  0.71733035  0.38218277     0.70300
O939        O  0.62187353  0.70324495  0.06451169    -0.74600
O940        O  0.56224531  0.71624881  0.11209873    -0.55100
C941        C  0.60465589  0.70491845  0.10201034     0.76300
O942        O  0.43051891  0.69311381  0.40846421    -0.59700
O943        O  0.46839776  0.72367166  0.36714756    -0.48600
C944        C  0.44167906  0.70279237  0.37245121     0.72900
Zr945      Zr  0.44048862  0.70263892  0.98255374     2.54700
O946        O  0.45138858  0.65594892  0.97325503    -0.80300
O947        O  0.35370961  0.69186414  0.47757210    -0.93700
Zr948      Zr  0.59435288  0.71489458  0.99377698     2.64700
O949        O  0.60009900  0.66813825  0.98277940    -0.98700
O950        O  0.69063148  0.73435816  0.49236722    -0.80700
O951        O  0.51517178  0.70500588  0.02797798    -0.84100
O952        O  0.52565408  0.71124191  0.44877360    -2.18800
O953        O  0.38476265  0.78645493  0.42700960    -0.67500
O954        O  0.44140221  0.77167917  0.37858559    -0.52000
C955        C  0.39965522  0.78319803  0.38906300     0.71300
O956        O  0.58463242  0.80182590  0.07592828    -0.60400
O957        O  0.54868576  0.77077017  0.11784643    -0.52400
C958        C  0.57530170  0.79161016  0.11128910     0.73100
O959        O  0.60064718  0.80931424  0.44342226    -0.71800
O960        O  0.55963037  0.78748516  0.38995163    -0.50400
C961        C  0.59181356  0.80447039  0.40501126     0.74500
O962        O  0.38976874  0.78583562  0.07099205    -0.67100
O963        O  0.43683546  0.76046587  0.11598569    -0.54300
C964        C  0.40144176  0.77727535  0.10795055     0.72900
Zr965      Zr  0.41322142  0.77654836  0.49837732     2.77500
O966        O  0.40622040  0.82578788  0.99648918    -0.97900
O967        O  0.31898564  0.76864177  0.50040194    -0.78700
Zr968      Zr  0.56460736  0.79267916  0.50573740     2.70100
O969        O  0.54285208  0.83878490  0.50609246    -0.79900
O970        O  0.66291310  0.79769774  0.01192708    -0.99000
Zr971      Zr  0.50106710  0.74122841  0.07236506     2.21500
Zr972      Zr  0.50929953  0.75217032  0.41768519     2.11100
O973        O  0.48995798  0.78827745  0.46147112    -2.47700
O974        O  0.48962900  0.78264191  0.04146484    -0.79700
O975        O  0.42991879  0.74170247  0.45163034    -0.71900
O976        O  0.58096245  0.75062277  0.03864910    -2.32900
O977        O  0.42412080  0.73737484  0.02973920    -2.29100
O978        O  0.58579089  0.75847405  0.45924167    -0.73700
H979        H  0.53154290  0.69773161  0.42839783     0.78300
H980        H  0.61000743  0.75217643  0.05822069     0.79400
H981        H  0.48449284  0.80395206  0.44542665     0.81600
H982        H  0.39366003  0.73360000  0.04628592     0.79200
H983        H  0.70236297  0.70220299  0.00594543     0.42300
H984        H  0.67657652  0.79273369  0.50094660     0.41300
H985        H  0.57955376  0.84586041  0.01633009     0.40900
H986        H  0.37968255  0.82748533  0.47364244     0.38900
H987        H  0.31545862  0.75011871  0.50846928     0.42000
H988        H  0.33976009  0.68422709  0.95496099     0.36800
H989        H  0.41555623  0.64922328  0.96723089     0.42900
H990        H  0.60290682  0.66498452  0.46679442     0.39300
H991        H  0.37154202  0.82586099  0.52189526     0.44200
H992        H  0.33273233  0.71375741  0.96570251     0.43000
H993        H  0.58057205  0.66023629  0.00611381     0.43100
H994        H  0.66143279  0.82042594  0.51742855     0.43400
O995        O  0.39945242  0.94784556  0.06368365    -0.75400
O996        O  0.44408058  0.96882854  0.11640809    -0.54300
C997        C  0.40830449  0.95291071  0.10257375     0.78300
O998        O  0.62814696  0.95127464  0.43371849    -0.60000
O999        O  0.57494506  0.96707630  0.38164687    -0.53000
C1000       C  0.61566309  0.95431116  0.39528180     0.70300
O1001       O  0.61677731  0.94887999  0.07131027    -0.74600
O1002       O  0.57112379  0.97204683  0.11900756    -0.55100
C1003       C  0.60813036  0.95604371  0.10924104     0.76300
O1004       O  0.39608849  0.94691969  0.42138003    -0.59700
O1005       O  0.44563694  0.96844131  0.37379438    -0.52800
C1006       C  0.40744404  0.95299652  0.38314984     0.72900
Zr1007     Zr  0.43122106  0.95695319  0.99359191     2.54700
O1008       O  0.44444442  0.91008400  0.99181694    -0.80300
O1009       O  0.33672841  0.94896266  0.49151980    -0.93700
Zr1010     Zr  0.58455222  0.95893619  0.00026698     2.64700
O1011       O  0.57346240  0.91181162  0.99793954    -0.98700
O1012       O  0.67833774  0.94926334  0.49750311    -0.80700
O1013       O  0.50625152  0.95772448  0.03937625    -0.84100
O1014       O  0.50926173  0.95614670  0.45372441    -2.18800
O1015       O  0.38717660  0.53673699  0.42948126    -0.67500
O1016       O  0.43939261  0.52262778  0.37731601    -0.52000
C1017       C  0.39700273  0.53389694  0.39066754     0.71300
O1018       O  0.62025132  0.54047033  0.06854008    -0.60400
O1019       O  0.56828385  0.52480006  0.11939351    -0.52400
C1020       C  0.60873716  0.53808400  0.10711699     0.73100
O1021       O  0.62121456  0.54697218  0.43189052    -0.71800
O1022       O  0.57425293  0.52578750  0.38071215    -0.50400
C1023       C  0.61158123  0.54133539  0.39339787     0.74500
O1024       O  0.39647583  0.54506387  0.06423573    -0.67100
O1025       O  0.44072752  0.52282950  0.11506825    -0.54300
C1026       C  0.40452648  0.53868972  0.10262459     0.72900
Zr1027     Zr  0.43003849  0.53393810  0.49710595     2.77500
O1028       O  0.46596650  0.58061710  0.99167951    -0.97900
O1029       O  0.34830333  0.55342271  0.00026415    -0.78700
Zr1030     Zr  0.58268431  0.53642912  0.49932315     2.70100
O1031       O  0.57262365  0.58358618  0.50021085    -0.79900
O1032       O  0.68489416  0.52885928  0.00338792    -0.99000
Zr1033     Zr  0.50537411  0.99751402  0.07917271     2.21500
Zr1034     Zr  0.50778960  0.99553939  0.41343689     2.11100
O1035       O  0.50665712  0.53635841  0.45549057    -2.47700
O1036       O  0.51260131  0.53447613  0.03977654    -0.79700
O1037       O  0.43110116  0.99471712  0.45486971    -0.71900
O1038       O  0.58301129  0.99815283  0.03812015    -2.32900
O1039       O  0.42889241  0.99564100  0.03474245    -2.29100
O1040       O  0.58445047  0.99570833  0.45717613    -0.73700
H1041       H  0.51001644  0.94105933  0.43538011     0.78300
H1042       H  0.61414674  0.99844895  0.05558294     0.79400
H1043       H  0.50612097  0.55143524  0.43763156     0.81600
H1044       H  0.39719157  0.99563700  0.05101283     0.79200
H1045       H  0.69015215  0.97695877  0.00418977     0.42300
H1046       H  0.68962390  0.52136087  0.49083934     0.41300
H1047       H  0.60460812  0.58378269  0.97273362     0.40900
H1048       H  0.44121474  0.58444806  0.46051331     0.38900
H1049       H  0.32063084  0.52273467  0.49750789     0.42000
H1050       H  0.32283043  0.96463321  0.01213573     0.36800
H1051       H  0.41111778  0.90293926  0.98018320     0.42900
H1052       H  0.56325469  0.90700768  0.46455653     0.39300
H1053       H  0.41570361  0.58882626  0.50420784     0.44200
H1054       H  0.32977004  0.93438639  0.00777229     0.43000
H1055       H  0.60070032  0.90508490  0.01737184     0.43100
H1056       H  0.69028768  0.55194402  0.48982350     0.43400
O1057       O  0.90946284  0.80394179  0.05875113    -0.75400
O1058       O  0.94676623  0.78129865  0.11302670    -0.54300
C1059       C  0.91752997  0.79970367  0.09806129     0.78300
O1060       O  0.92479038  0.68560132  0.42998123    -0.60000
O1061       O  0.96231739  0.70922897  0.37847913    -0.53000
C1062       C  0.93717121  0.68895854  0.39140578     0.70300
O1063       O  0.90772016  0.69179293  0.06851239    -0.74600
O1064       O  0.94761111  0.71722476  0.11811599    -0.55100
C1065       C  0.91823955  0.69765840  0.10702216     0.76300
O1066       O  0.91638955  0.79984946  0.41773420    -0.59700
O1067       O  0.95941487  0.77402929  0.37202466    -0.52800
C1068       C  0.92945702  0.79368393  0.38000155     0.72900
Zr1069     Zr  0.93275495  0.78605975  0.99035603     2.54700
O1070       O  0.83731283  0.78535712  0.98414075    -0.80300
O1071       O  0.93544852  0.83168724  0.49101290    -0.93700
Zr1072     Zr  0.92543433  0.70996007  0.99831232     2.64700
O1073       O  0.83706845  0.72737401  0.99201074    -0.98700
O1074       O  0.88737473  0.66546815  0.50346611    -0.80700
O1075       O  0.92596723  0.74950084  0.03661147    -0.84100
O1076       O  0.92946936  0.74461448  0.45211910    -2.18800
O1077       O  0.10256978  0.80143423  0.42889969    -0.67500
O1078       O  0.06421565  0.77565924  0.37889865    -0.52000
C1079       C  0.09237662  0.79548489  0.39043626     0.71300
O1080       O  0.10134774  0.69235686  0.07800251    -0.60400
O1081       O  0.05893110  0.71862399  0.12406839    -0.52400
C1082       C  0.08969228  0.69922038  0.11564373     0.73100
O1083       O  0.11031786  0.69063829  0.43482879    -0.71800
O1084       O  0.06980086  0.71286363  0.38165138    -0.50400
C1085       C  0.10112473  0.69517338  0.39570976     0.74500
O1086       O  0.10003123  0.80403462  0.06832790    -0.67100
O1087       O  0.05407986  0.78183253  0.11720385    -0.54300
C1088       C  0.08409408  0.80079739  0.10610972     0.72900
Zr1089     Zr  0.08736319  0.78321565  0.49901214     2.77500
O1090       O  0.17881993  0.77028420  0.50461816    -0.97900
O1091       O  0.12541509  0.82663000  0.99453219    -0.78700
Zr1092     Zr  0.08596971  0.70709864  0.50434918     2.70100
O1093       O  0.18097652  0.71275252  0.50755182    -0.79900
O1094       O  0.08170357  0.65955477  0.00784813    -0.99000
Zr1095     Zr  0.00348113  0.74836461  0.08044713     2.21500
Zr1096     Zr  0.01112666  0.74348701  0.41598522     2.11100
O1097       O  0.08911895  0.74415157  0.45934115    -2.47700
O1098       O  0.08553949  0.74633367  0.04482709    -0.79700
O1099       O  0.01146936  0.78295622  0.45500896    -0.71900
O1100       O  0.00233105  0.70870096  0.04136934    -2.32900
O1101       O  0.00803098  0.78551845  0.03481339    -2.29100
O1102       O  0.00900300  0.70620228  0.46115498    -0.73700
H1103       H  0.90014424  0.74401390  0.43255444     0.78300
H1104       H  0.00176343  0.69366369  0.05927825     0.79400
H1105       H  0.12020453  0.74386120  0.44244038     0.81600
H1106       H  0.00728303  0.80156052  0.05034345     0.79200
H1107       H  0.89841422  0.65646336  0.00780510     0.42300
H1108       H  0.08603068  0.65292060  0.48132955     0.41300
H1109       H  0.18594517  0.71491467  0.03992815     0.40900
H1110       H  0.19783083  0.78290944  0.48694049     0.38900
H1111       H  0.09050227  0.83804969  0.48775407     0.42000
H1112       H  0.96487911  0.83827856  0.00921881     0.36800
H1113       H  0.82984970  0.77954172  0.95515872     0.42900
H1114       H  0.82301480  0.71066285  0.46784562     0.39300
H1115       H  0.18924441  0.77500343  0.53355433     0.44200
H1116       H  0.90471338  0.83963547  0.99821924     0.43000
H1117       H  0.81742870  0.71896069  0.01485893     0.43100
H1118       H  0.12668442  0.65608604  0.51818858     0.43400
C1119       C  0.26143004  0.61919070  0.20819786     0.45300
H1120       H  0.25080027  0.61539144  0.17534287    -0.03700
C1121       C  0.28289191  0.62407678  0.28612863     0.45400
H1122       H  0.29288300  0.62624526  0.31945208    -0.03700
C1123       C  0.31165859  0.63555431  0.21534421    -0.17400
C1124       C  0.21698245  0.63444046  0.23293380    -0.17100
C1125       C  0.27693578  0.59258125  0.22859843    -0.17500
C1126       C  0.32373327  0.63858261  0.25778008    -0.17500
C1127       C  0.22903110  0.63642583  0.27533132    -0.17100
C1128       C  0.28121189  0.59467209  0.27170631    -0.17400
C1129       C  0.75728363  0.62680373  0.21106010     0.45300
H1130       H  0.75863624  0.62932035  0.17711837    -0.03700
C1131       C  0.75400414  0.62454033  0.29086508     0.45400
H1132       H  0.74929703  0.62387042  0.32484854    -0.03700
C1133       C  0.71975992  0.64740304  0.22961872    -0.17400
C1134       C  0.73802095  0.59906741  0.22599233    -0.17100
C1135       C  0.81125140  0.63320888  0.23174669    -0.17500
C1136       C  0.71864213  0.64666134  0.27278577    -0.17500
C1137       C  0.73299987  0.59902481  0.26937234    -0.17100
C1138       C  0.81187998  0.63006877  0.27502690    -0.17400
C1139       C  0.25433138  0.86230329  0.20337144     0.45300
H1140       H  0.24946539  0.85869625  0.16986446    -0.03700
C1141       C  0.25946145  0.87011731  0.28230451     0.45400
H1142       H  0.26163090  0.87511736  0.31550575    -0.03700
C1143       C  0.29101675  0.84240231  0.22605653    -0.17400
C1144       C  0.27949775  0.88918686  0.21362964    -0.17100
C1145       C  0.19953683  0.86013403  0.22473091    -0.17500
C1146       C  0.29302748  0.84719615  0.26942303    -0.17500
C1147       C  0.28261035  0.89351407  0.25681646    -0.17100
C1148       C  0.20325428  0.86128653  0.26754324    -0.17400
C1149       C  0.75178974  0.86482163  0.28678420     0.45300
H1150       H  0.75868817  0.86296205  0.32095410    -0.03700
C1151       C  0.73513385  0.87022351  0.20814851     0.45400
H1152       H  0.72675680  0.87339143  0.17506456    -0.03700
C1153       C  0.70558490  0.84762088  0.27093622    -0.17400
C1154       C  0.73431699  0.89326504  0.27438189    -0.17100
C1155       C  0.80042006  0.85544867  0.26009741    -0.17500
C1156       C  0.69677202  0.85066341  0.22864641    -0.17500
C1157       C  0.72849133  0.89655650  0.23170319    -0.17100
C1158       C  0.79038226  0.85850703  0.21702096    -0.17400
C1159       C  0.11951595  0.84575660  0.12752435    -0.02000
C1160       C  0.10084703  0.82047605  0.13879476     0.07700
C1161       C  0.09597576  0.81542977  0.18235401    -0.02100
C1162       C  0.11383827  0.83402037  0.21157394    -0.02100
C1163       C  0.15043033  0.85311912  0.19915801     0.07800
C1164       C  0.14583769  0.86154565  0.15749700    -0.02300
Br1165     Br  0.17186313  0.89563404  0.14286767    -0.00800
Br1166     Br  0.10524670  0.86056548  0.07344286    -0.00900
Br1167     Br  0.05875642  0.84494822  0.24782611    -0.00900
Br1168     Br  0.06145090  0.78509243  0.20514714    -0.00900
C1169       C  0.14703466  0.80042561  0.32609969    -0.02000
C1170       C  0.11650822  0.81210035  0.35704288     0.07700
C1171       C  0.11053365  0.83945948  0.35615969    -0.02100
C1172       C  0.13485698  0.85483060  0.32490839    -0.02100
C1173       C  0.16970507  0.84370076  0.29583205     0.07800
C1174       C  0.17441491  0.81582553  0.29677139    -0.02300
Br1175     Br  0.21945681  0.79666786  0.26103850    -0.00800
Br1176     Br  0.15478816  0.76280813  0.32595292    -0.00900
Br1177     Br  0.11362966  0.89037646  0.31836529    -0.00900
Br1178     Br  0.06841240  0.85622227  0.39756581    -0.00900
C1179       C  0.14245537  0.64447404  0.31410383    -0.02000
C1180       C  0.19615996  0.65089177  0.30814130     0.07700
C1181       C  0.21789563  0.67027634  0.33577325    -0.02100
C1182       C  0.18587457  0.68555897  0.36162497    -0.02100
C1183       C  0.13235029  0.68003679  0.36502346     0.07800
C1184       C  0.11143110  0.65851163  0.34295046    -0.02300
Br1185     Br  0.04265855  0.64610686  0.35682983    -0.00800
Br1186     Br  0.11335306  0.61343732  0.28928494    -0.00900
Br1187     Br  0.21576199  0.71391661  0.39464966    -0.00900
Br1188     Br  0.29098528  0.67627282  0.34370220    -0.00900
C1189       C  0.10714328  0.65611147  0.15378179    -0.02000
C1190       C  0.11444718  0.68341946  0.15116347     0.07700
C1191       C  0.14944908  0.69497044  0.18035055    -0.02100
C1192       C  0.17874750  0.67956246  0.20955579    -0.02100
C1193       C  0.17528753  0.65167603  0.21000404     0.07800
C1194       C  0.13641149  0.64060280  0.18281043    -0.02300
Br1195     Br  0.12170281  0.60402040  0.18480874    -0.00800
Br1196     Br  0.05725854  0.63964530  0.11641014    -0.00900
Br1197     Br  0.22643576  0.69786654  0.24581359    -0.00900
Br1198     Br  0.16199990  0.73204515  0.17675436    -0.00900
C1199       C  0.89628484  0.65309628  0.13934032    -0.02000
C1200       C  0.89507697  0.68078645  0.14101462     0.07700
C1201       C  0.87277511  0.69242678  0.17655257    -0.02100
C1202       C  0.85027267  0.67697772  0.20831557    -0.02100
C1203       C  0.84917207  0.64939237  0.20576580     0.07800
C1204       C  0.87629756  0.63777681  0.17253512    -0.02300
Br1205     Br  0.89447429  0.60134738  0.17682617    -0.00800
Br1206     Br  0.92321036  0.63534203  0.09133648    -0.00900
Br1207     Br  0.82508651  0.69445716  0.25659747    -0.00900
Br1208     Br  0.86772288  0.72994707  0.18023440    -0.00900
C1209       C  0.89690756  0.64445082  0.37464796    -0.02000
C1210       C  0.91949318  0.66812869  0.36050797     0.07700
C1211       C  0.92558744  0.67020936  0.31670383    -0.02100
C1212       C  0.90347459  0.65082335  0.29035595    -0.02100
C1213       C  0.86026515  0.63570915  0.30422760     0.07800
C1214       C  0.86312282  0.62977943  0.34792532    -0.02300
Br1215     Br  0.81851491  0.60552618  0.37623429    -0.00800
Br1216     Br  0.91656873  0.62990979  0.42815031    -0.00900
Br1217     Br  0.95408086  0.63434542  0.25548629    -0.00900
Br1218     Br  0.97126768  0.69566496  0.29141882    -0.00900
C1219       C  0.89839304  0.83749963  0.34934972    -0.02000
C1220       C  0.90772046  0.81051795  0.34386794     0.07700
C1221       C  0.89516877  0.80027614  0.30365063    -0.02100
C1222       C  0.86429805  0.81482342  0.27395190    -0.02100
C1223       C  0.84725134  0.84095349  0.28251950     0.07800
C1224       C  0.87057344  0.85232613  0.31873359    -0.02300
Br1225     Br  0.87045019  0.88927513  0.32431290    -0.00800
Br1226     Br  0.92720234  0.85535031  0.39763701    -0.00900
Br1227     Br  0.84015378  0.79563502  0.22614340    -0.00900
Br1228     Br  0.91733393  0.76545617  0.28921865    -0.00900
C1229       C  0.83193202  0.81502386  0.12436968    -0.02000
C1230       C  0.88672588  0.81625734  0.12728568     0.07700
C1231       C  0.90972730  0.83565673  0.15310647    -0.02100
C1232       C  0.87866179  0.85051090  0.18090846    -0.02100
C1233       C  0.82321378  0.84761629  0.18098295     0.07800
C1234       C  0.80071678  0.83231130  0.14737213    -0.02300
Br1235     Br  0.73241477  0.83727383  0.12236885    -0.00800
Br1236     Br  0.79931004  0.78923479  0.08774983    -0.00900
Br1237     Br  0.91172329  0.87719784  0.21470479    -0.00900
Br1238     Br  0.98240096  0.84392554  0.14687787    -0.00900
C1239       C  0.69933445  0.55343921  0.35996093    -0.02000
C1240       C  0.64378192  0.55489395  0.36108817     0.07700
C1241       C  0.61778245  0.56921070  0.33004221    -0.02100
C1242       C  0.64582798  0.58031614  0.29686031    -0.02100
C1243       C  0.70165202  0.58002783  0.29600296     0.07800
C1244       C  0.72768135  0.56496870  0.32677499    -0.02300
Br1245     Br  0.80014286  0.55534826  0.31802528    -0.00800
Br1246     Br  0.73767622  0.53739366  0.40491516    -0.00900
Br1247     Br  0.60431830  0.59018363  0.24997853    -0.00900
Br1248     Br  0.54342480  0.57617171  0.33561542    -0.00900
C1249       C  0.72385184  0.58014046  0.15071910    -0.02000
C1250       C  0.71980015  0.57721123  0.19471897     0.07700
C1251       C  0.69071158  0.55484007  0.20672098    -0.02100
C1252       C  0.65071085  0.54416074  0.18044121    -0.02100
C1253       C  0.64675219  0.55134928  0.13778211     0.07800
C1254       C  0.68582073  0.56914976  0.12311664    -0.02300
Br1255     Br  0.68599999  0.58270519  0.06643003    -0.00800
Br1256     Br  0.78549060  0.59418141  0.12499641    -0.00900
Br1257     Br  0.60350876  0.51925586  0.20498375    -0.00900
Br1258     Br  0.72358757  0.52987038  0.24269086    -0.00900
C1259       C  0.39504887  0.56174210  0.17062518    -0.02000
C1260       C  0.37088871  0.55098927  0.13511151     0.07700
C1261       C  0.31541352  0.55074469  0.13263806    -0.02100
C1262       C  0.28511082  0.56251408  0.16450718    -0.02100
C1263       C  0.30896730  0.57375983  0.20075768     0.07800
C1264       C  0.36477426  0.57055998  0.20430322    -0.02300
Br1265     Br  0.40287555  0.56958602  0.25554936    -0.00800
Br1266     Br  0.47131092  0.56491545  0.17281256    -0.00900
Br1267     Br  0.21022330  0.55948054  0.16096058    -0.00900
Br1268     Br  0.28055589  0.53299034  0.08671493    -0.00900
C1269       C  0.32350411  0.56654303  0.37449594    -0.02000
C1270       C  0.35566458  0.54534519  0.36124755     0.07700
C1271       C  0.34138584  0.53389894  0.32220979    -0.02100
C1272       C  0.30544641  0.54675925  0.29466152    -0.02100
C1273       C  0.28976112  0.57253996  0.30362645     0.07800
C1274       C  0.28771702  0.57820085  0.34640001    -0.02300
Br1275     Br  0.22823240  0.59689521  0.36752074    -0.00800
Br1276     Br  0.32977610  0.58328186  0.42840945    -0.00900
Br1277     Br  0.26730263  0.52662827  0.25359679    -0.00900
Br1278     Br  0.36911523  0.50085513  0.30586588    -0.00900
C1279       C  0.72765775  0.92471081  0.16626648    -0.02000
C1280       C  0.70886150  0.92079550  0.20709374     0.07700
C1281       C  0.66385411  0.93572159  0.21732275    -0.02100
C1282       C  0.62842221  0.94406098  0.18573750    -0.02100
C1283       C  0.64422497  0.94539142  0.14351753     0.07800
C1284       C  0.69674726  0.93748339  0.13525685    -0.02300
Br1285     Br  0.72922728  0.94449680  0.08258247    -0.00800
Br1286     Br  0.79846450  0.91425112  0.15396677    -0.00900
Br1287     Br  0.55779289  0.95199817  0.20264800    -0.00900
Br1288     Br  0.66826461  0.96096406  0.26133587    -0.00900
C1289       C  0.65006213  0.90633778  0.31133070    -0.02000
C1290       C  0.70499420  0.90970059  0.30579941     0.07700
C1291       C  0.73062701  0.92890932  0.33069118    -0.02100
C1292       C  0.70247766  0.94304365  0.36116585    -0.02100
C1293       C  0.64779427  0.93935845  0.36537976     0.07800
C1294       C  0.62320222  0.91950921  0.34272157    -0.02300
Br1295     Br  0.55297775  0.90902469  0.35738311    -0.00800
Br1296     Br  0.60578976  0.89205954  0.26914053    -0.00900
Br1297     Br  0.73910912  0.96708701  0.39727999    -0.00900
Br1298     Br  0.79879462  0.94148793  0.31545586    -0.00900
C1299       C  0.31953671  0.93874775  0.34941216    -0.02000
C1300       C  0.37478226  0.94133818  0.34719416     0.07700
C1301       C  0.39790790  0.93418629  0.30878876    -0.02100
C1302       C  0.36889220  0.92019571  0.27752653    -0.02100
C1303       C  0.31413488  0.91461181  0.28188603     0.07800
C1304       C  0.28999875  0.92665117  0.31655633    -0.02300
Br1305     Br  0.21531125  0.92986671  0.31635728    -0.00800
Br1306     Br  0.28277166  0.95429760  0.39537957    -0.00900
Br1307     Br  0.40834196  0.90965040  0.23023945    -0.00900
Br1308     Br  0.46964988  0.94427242  0.29703193    -0.00900
C1309       C  0.30365108  0.93337741  0.18196945    -0.02000
C1310       C  0.30535074  0.90580856  0.17973127     0.07700
C1311       C  0.33729713  0.89486571  0.14753238    -0.02100
C1312       C  0.37413170  0.91039734  0.12642390    -0.02100
C1313       C  0.37572254  0.93748670  0.13204175     0.07800
C1314       C  0.33969176  0.94903008  0.15943562    -0.02300
Br1315     Br  0.34011039  0.98618040  0.16659060    -0.00800
Br1316     Br  0.24656050  0.94978492  0.21037515    -0.00900
Br1317     Br  0.42578088  0.89415124  0.09074377    -0.00900
Br1318     Br  0.33078503  0.86014793  0.12521733    -0.00900
C1319       C  0.31635613  0.80188171  0.36243090    -0.02000
C1320       C  0.36898382  0.79547499  0.35546058     0.07700
C1321       C  0.39535245  0.80714766  0.32165851    -0.02100
C1322       C  0.37276001  0.82833168  0.30178842    -0.02100
C1323       C  0.31885425  0.83122421  0.30281563     0.07800
C1324       C  0.29337191  0.82194543  0.33945052    -0.02300
Br1325     Br  0.24717032  0.84251454  0.37334092    -0.00800
Br1326     Br  0.27479998  0.78372305  0.40357240    -0.00900
Br1327     Br  0.40983376  0.86041972  0.31174270    -0.00900
Br1328     Br  0.46252018  0.79627865  0.30162925    -0.00900
C1329       C  0.31816158  0.78927045  0.14235182    -0.02000
C1330       C  0.37272639  0.78806356  0.14376233     0.07700
C1331       C  0.39982390  0.80018416  0.17686474    -0.02100
C1332       C  0.37437578  0.81892666  0.20109746    -0.02100
C1333       C  0.31874598  0.82085358  0.20135295     0.07800
C1334       C  0.29129611  0.80498046  0.17110768    -0.02300
Br1335     Br  0.21795739  0.80612169  0.16156250    -0.00800
Br1336     Br  0.28064113  0.76828984  0.10106518    -0.00900
Br1337     Br  0.41822910  0.84791652  0.21368928    -0.00900
Br1338     Br  0.47311832  0.79327184  0.18731469    -0.00900
C1339       C  0.70031230  0.81799363  0.33376804    -0.02000
C1340       C  0.67369835  0.83163250  0.30123332     0.07700
C1341       C  0.61868317  0.83539809  0.30586203    -0.02100
C1342       C  0.59621704  0.83228300  0.34490240    -0.02100
C1343       C  0.62268964  0.81833864  0.37530263     0.07800
C1344       C  0.67459833  0.81103277  0.37027361    -0.02300
Br1345     Br  0.70932516  0.79048152  0.41307476    -0.00800
Br1346     Br  0.76785483  0.80338698  0.32731305    -0.00900
Br1347     Br  0.52677616  0.84442398  0.35702656    -0.00900
Br1348     Br  0.56794981  0.83215789  0.26122877    -0.00900
C1349       C  0.62131950  0.84653240  0.17635311    -0.02000
C1350       C  0.66001898  0.83470498  0.20245506     0.07700
C1351       C  0.66746842  0.80751745  0.19851414    -0.02100
C1352       C  0.64308704  0.79414407  0.16571039    -0.02100
C1353       C  0.59912967  0.80496191  0.14623899     0.07800
C1354       C  0.58689989  0.83109390  0.15257063    -0.02300
Br1355     Br  0.52684181  0.84624331  0.12404895    -0.00800
Br1356     Br  0.61609676  0.88295947  0.16753721    -0.00900
Br1357     Br  0.68081866  0.76652424  0.13836595    -0.00900
Br1358     Br  0.71222021  0.78759716  0.23390679    -0.00900
C1359       C  0.63509349  0.67176264  0.29306852    -0.02000
C1360       C  0.68879585  0.66535810  0.30063441     0.07700
C1361       C  0.71558435  0.67964106  0.33283200    -0.02100
C1362       C  0.69116025  0.69955687  0.35489356    -0.02100
C1363       C  0.63812603  0.70450538  0.34830257     0.07800
C1364       C  0.61130003  0.69228625  0.31494037    -0.02300
Br1365     Br  0.54421415  0.70522125  0.29588364    -0.00800
Br1366     Br  0.59035789  0.65258536  0.25546676    -0.00900
Br1367     Br  0.73118013  0.72187712  0.39308439    -0.00900
Br1368     Br  0.78519844  0.67364650  0.35070292    -0.00900
C1369       C  0.64103765  0.70311628  0.17590384    -0.02000
C1370       C  0.63504361  0.69218295  0.13549252     0.07700
C1371       C  0.65516007  0.66732462  0.12843501    -0.02100
C1372       C  0.67006054  0.65264663  0.16264932    -0.02100
C1373       C  0.68868070  0.66456980  0.19972004     0.07800
C1374       C  0.67599148  0.69145259  0.20470437    -0.02300
Br1375     Br  0.70583690  0.71469865  0.24558674    -0.00800
Br1376     Br  0.59841353  0.73171146  0.19493484    -0.00900
Br1377     Br  0.63481087  0.62007464  0.16442138    -0.00900
Br1378     Br  0.65229047  0.64995399  0.07509307    -0.00900
C1379       C  0.39881312  0.64476147  0.31147798    -0.02000
C1380       C  0.36789732  0.65508120  0.27782200     0.07700
C1381       C  0.37469994  0.68232770  0.26967428    -0.02100
C1382       C  0.39870867  0.69862969  0.30037516    -0.02100
C1383       C  0.42443258  0.68760765  0.33526501     0.07800
C1384       C  0.43093176  0.66074410  0.33648026    -0.02300
Br1385     Br  0.48389009  0.64598064  0.37357193    -0.00800
Br1386     Br  0.39669981  0.60966905  0.32935686    -0.00900
Br1387     Br  0.38987193  0.73576889  0.29712567    -0.00900
Br1388     Br  0.35123164  0.69917840  0.21930588    -0.00900
C1389       C  0.34619352  0.67115780  0.11438307    -0.02000
C1390       C  0.40074335  0.67017810  0.11568399     0.07700
C1391       C  0.42720760  0.65535185  0.14550005    -0.02100
C1392       C  0.39898191  0.64354051  0.17776848    -0.02100
C1393       C  0.34294058  0.64507185  0.17849122     0.07800
C1394       C  0.31718947  0.65712507  0.14341289    -0.02300
Br1395     Br  0.24342983  0.65630185  0.13052581    -0.00800
Br1396     Br  0.31113976  0.69399311  0.07442043    -0.00900
Br1397     Br  0.44068418  0.62595658  0.21889211    -0.00900
Br1398     Br  0.50248614  0.65147838  0.14119100    -0.00900
O1399       O  0.42911716  0.68041088  0.54830240    -0.75400
O1400       O  0.45921588  0.70547032  0.60269118    -0.54300
C1401       C  0.43494592  0.68581725  0.58712761     0.78300
O1402       O  0.62088140  0.70778336  0.92234823    -0.60000
O1403       O  0.57407757  0.73178820  0.87556750    -0.53000
C1404       C  0.60927289  0.71514101  0.88499402     0.70300
O1405       O  0.62843157  0.70620638  0.56361126    -0.74600
O1406       O  0.56604115  0.71659871  0.61082283    -0.55100
C1407       C  0.60983473  0.70665259  0.60094669     0.76300
O1408       O  0.42862311  0.69517502  0.90693642    -0.59700
O1409       O  0.47097764  0.72500833  0.86679527    -0.48600
C1410       C  0.44282326  0.70466222  0.87137446     0.72900
Zr1411     Zr  0.44733434  0.70122849  0.48296034     2.54700
O1412       O  0.46785146  0.65529084  0.47478100    -0.80300
O1413       O  0.34555401  0.69714584  0.97755648    -0.93700
Zr1414     Zr  0.60050866  0.71812327  0.49238287     2.64700
O1415       O  0.62922650  0.67325945  0.48569868    -0.98700
O1416       O  0.68943849  0.71962681  0.99776699    -0.80700
O1417       O  0.52263900  0.70585605  0.52714899    -0.84100
O1418       O  0.52031891  0.71081704  0.94926170    -2.18800
O1419       O  0.38244782  0.78538210  0.92617563    -0.67500
O1420       O  0.44032919  0.76984177  0.87914340    -0.52000
C1421       C  0.39783202  0.78103787  0.88859804     0.71300
O1422       O  0.57993167  0.80309339  0.57718354    -0.60400
O1423       O  0.55358332  0.76940952  0.61829336    -0.52400
C1424       C  0.57630834  0.79134484  0.61210620     0.73100
O1425       O  0.60225459  0.80878777  0.94237591    -0.71800
O1426       O  0.56020992  0.78730243  0.88918990    -0.50400
C1427       C  0.59299025  0.80410633  0.90391100     0.74500
O1428       O  0.38809509  0.78315032  0.57177348    -0.67100
O1429       O  0.43942546  0.75990321  0.61663115    -0.54300
C1430       C  0.40152841  0.77540604  0.60881711     0.72900
Zr1431     Zr  0.41465064  0.77855067  0.99766753     2.77500
O1432       O  0.39828882  0.82338178  0.50013564    -0.97900
O1433       O  0.31991385  0.77302726  0.00190235    -0.78700
Zr1434     Zr  0.56816272  0.79101915  0.00504601     2.70100
O1435       O  0.54596139  0.83696419  0.00934556    -0.79900
O1436       O  0.65644557  0.80161532  0.52289843    -0.99000
Zr1437     Zr  0.50398494  0.74129178  0.57215952     2.21500
Zr1438     Zr  0.51019397  0.75223761  0.91837938     2.11100
O1439       O  0.49293806  0.78878072  0.96111688    -2.47700
O1440       O  0.48738686  0.78267883  0.54249409    -0.79700
O1441       O  0.42921069  0.74351264  0.95120612    -0.71900
O1442       O  0.58259773  0.75265538  0.53821936    -2.32900
O1443       O  0.42744851  0.73556329  0.52990420    -2.29100
O1444       O  0.58670827  0.75575560  0.96015813    -0.73700
H1445       H  0.52582091  0.69731287  0.92886060     0.78300
H1446       H  0.61187462  0.75481961  0.55752376     0.79400
H1447       H  0.48879020  0.80447179  0.94483387     0.81600
H1448       H  0.39753684  0.73111041  0.54668117     0.79200
H1449       H  0.70572015  0.72914206  0.51971843     0.42300
H1450       H  0.66823695  0.81675417  0.00975079     0.41300
H1451       H  0.57691551  0.84791869  0.50285301     0.40900
H1452       H  0.39006380  0.82981969  0.96898185     0.38900
H1453       H  0.30538862  0.78975378  0.99188731     0.42000
H1454       H  0.35146774  0.67426667  0.46498984     0.36800
H1455       H  0.49668397  0.65210376  0.49515608     0.42900
H1456       H  0.63741878  0.66384192  0.98797127     0.39300
H1457       H  0.37841264  0.82960237  0.01686083     0.44200
H1458       H  0.34051938  0.70366926  0.45543860     0.43000
H1459       H  0.66175539  0.67414318  0.46917079     0.43100
H1460       H  0.67227151  0.79348984  0.04123305     0.43400
O1461       O  0.40101991  0.94598220  0.56414179    -0.75400
O1462       O  0.44684831  0.96717699  0.61618530    -0.54300
C1463       C  0.41072002  0.95129106  0.60296235     0.78300
O1464       O  0.62928909  0.95044247  0.93582643    -0.60000
O1465       O  0.57826908  0.96739668  0.88326155    -0.53000
C1466       C  0.61830166  0.95409404  0.89718043     0.70300
O1467       O  0.62011458  0.94788229  0.56960421    -0.74600
O1468       O  0.57381829  0.97030461  0.61776449    -0.55100
C1469       C  0.61139605  0.95476989  0.60769200     0.76300
O1470       O  0.39943631  0.94654050  0.92155969    -0.59700
O1471       O  0.44824813  0.96780862  0.87328014    -0.52800
C1472       C  0.41069002  0.95215312  0.88321792     0.72900
Zr1473     Zr  0.43145428  0.95571725  0.49341324     2.54700
O1474       O  0.44919455  0.90924339  0.49048323    -0.80300
O1475       O  0.33618893  0.95105428  0.99312803    -0.93700
Zr1476     Zr  0.58460045  0.95740215  0.49906805     2.64700
O1477       O  0.56892025  0.91062471  0.49466711    -0.98700
O1478       O  0.67978395  0.95863289  0.99878821    -0.80700
O1479       O  0.50702901  0.95608129  0.53883911    -0.84100
O1480       O  0.50970439  0.95689109  0.95464109    -2.18800
O1481       O  0.39048408  0.53626300  0.92980167    -0.67500
O1482       O  0.44234240  0.52202372  0.87735038    -0.52000
C1483       C  0.40068201  0.53377623  0.89090225     0.71300
O1484       O  0.61164066  0.54685381  0.56929360    -0.60400
O1485       O  0.56692829  0.52629455  0.61995272    -0.52400
C1486       C  0.60372602  0.54195036  0.60776898     0.73100
O1487       O  0.62601112  0.54137241  0.92954305    -0.71800
O1488       O  0.57443815  0.52250645  0.87894067    -0.50400
C1489       C  0.61365870  0.53702255  0.89098206     0.74500
O1490       O  0.39621775  0.54587870  0.56571422    -0.67100
O1491       O  0.44135563  0.52350733  0.61590317    -0.54300
C1492       C  0.40555632  0.53972869  0.60405431     0.72900
Zr1493     Zr  0.43631268  0.53550224  0.99668670     2.77500
O1494       O  0.44605931  0.58059366  0.49058674    -0.97900
O1495       O  0.33576865  0.54050811  0.49953842    -0.78700
Zr1496     Zr  0.58947946  0.53092638  0.99828626     2.70100
O1497       O  0.58733316  0.57834079  0.99883639    -0.79900
O1498       O  0.67801278  0.53690307  0.50641233    -0.99000
Zr1499     Zr  0.50769027  0.99580630  0.57889502     2.21500
Zr1500     Zr  0.50849130  0.99574023  0.91299601     2.11100
O1501       O  0.51326597  0.53433863  0.95517213    -2.47700
O1502       O  0.50575956  0.53590277  0.54062260    -0.79700
O1503       O  0.43088902  0.99551533  0.95399299    -0.71900
O1504       O  0.58525859  0.99644170  0.53776489    -2.32900
O1505       O  0.43043192  0.99412889  0.53533852    -2.29100
O1506       O  0.58370931  0.99676647  0.95769267    -0.73700
H1507       H  0.51106554  0.94147282  0.93707684     0.78300
H1508       H  0.61657514  0.99680809  0.55505370     0.79400
H1509       H  0.51541399  0.54926415  0.93700313     0.81600
H1510       H  0.39906494  0.99394753  0.55197555     0.79200
H1511       H  0.69457704  0.96682852  0.49658423     0.42300
H1512       H  0.69460937  0.51434772  0.98471094     0.41300
H1513       H  0.59157803  0.58986878  0.47536200     0.40900
H1514       H  0.46473941  0.58489170  0.96156963     0.38900
H1515       H  0.32454957  0.53837914  0.99510740     0.42000
H1516       H  0.32283611  0.96087928  0.51296764     0.36800
H1517       H  0.42607414  0.90258386  0.46771669     0.42900
H1518       H  0.58558390  0.90665118  0.96989115     0.39300
H1519       H  0.43732102  0.59092039  0.00397276     0.44200
H1520       H  0.33127783  0.93128059  0.50301753     0.43000
H1521       H  0.60353858  0.90284068  0.50111822     0.43100
H1522       H  0.69782952  0.54475452  0.98930191     0.43400
O1523       O  0.90651293  0.80121477  0.55932427    -0.75400
O1524       O  0.94771021  0.78007575  0.61335625    -0.54300
C1525       C  0.91662670  0.79776521  0.59854643     0.78300
O1526       O  0.92151614  0.68645921  0.93115457    -0.60000
O1527       O  0.96285578  0.70902621  0.88024784    -0.53000
C1528       C  0.93566005  0.68933074  0.89283383     0.70300
O1529       O  0.90942777  0.69013076  0.56765996    -0.74600
O1530       O  0.94929618  0.71565919  0.61711192    -0.55100
C1531       C  0.91990250  0.69611662  0.60607101     0.76300
O1532       O  0.91887982  0.80144212  0.91744118    -0.59700
O1533       O  0.96163720  0.77498421  0.87244101    -0.52800
C1534       C  0.93234441  0.79499845  0.87994501     0.72900
Zr1535     Zr  0.93097926  0.78429386  0.49059193     2.54700
O1536       O  0.83567350  0.78271448  0.48289494    -0.80300
O1537       O  0.93862411  0.83335649  0.98748267    -0.93700
Zr1538     Zr  0.92859860  0.70806262  0.49782495     2.64700
O1539       O  0.83790725  0.72205033  0.49005944    -0.98700
O1540       O  0.87307373  0.67021255  0.00017259    -0.80700
O1541       O  0.92655144  0.74745071  0.53650602    -0.84100
O1542       O  0.92939935  0.74625228  0.95213653    -2.18800
O1543       O  0.10342501  0.80103312  0.92944816    -0.67500
O1544       O  0.06459750  0.77540705  0.87955004    -0.52000
C1545       C  0.09304208  0.79507542  0.89107751     0.71300
O1546       O  0.10684661  0.69378977  0.57750384    -0.60400
O1547       O  0.06193411  0.71891537  0.62366807    -0.52400
C1548       C  0.09459990  0.70035019  0.61526458     0.73100
O1549       O  0.11134692  0.69075578  0.93745570    -0.71800
O1550       O  0.07348638  0.71373398  0.88391186    -0.50400
C1551       C  0.10453047  0.69597508  0.89837650     0.74500
O1552       O  0.09702681  0.80363251  0.56890468    -0.67100
O1553       O  0.05309826  0.78083280  0.61825588    -0.54300
C1554       C  0.08204034  0.80015027  0.60696423     0.72900
Zr1555     Zr  0.08887781  0.78297251  0.99943177     2.77500
O1556       O  0.18038303  0.76975819  0.00123345    -0.97900
O1557       O  0.12192008  0.82723978  0.49307179    -0.78700
Zr1558     Zr  0.08292645  0.70692381  0.00557350     2.70100
O1559       O  0.17826082  0.71048753  0.01036210    -0.79900
O1560       O  0.08983158  0.65979807  0.51009859    -0.99000
Zr1561     Zr  0.00431393  0.74737945  0.58006294     2.21500
Zr1562     Zr  0.01144367  0.74371371  0.91676002     2.11100
O1563       O  0.08878922  0.74372984  0.96051686    -2.47700
O1564       O  0.08602918  0.74638082  0.54387520    -0.79700
O1565       O  0.01337572  0.78339649  0.95522570    -0.71900
O1566       O  0.00558299  0.70781958  0.54071998    -2.32900
O1567       O  0.00661469  0.78462754  0.53464885    -2.29100
O1568       O  0.00617350  0.70672436  0.96212133    -0.73700
H1569       H  0.90037650  0.74600626  0.93224223     0.78300
H1570       H  0.00554271  0.69280181  0.55868826     0.79400
H1571       H  0.12009916  0.74304476  0.94390020     0.81600
H1572       H  0.00514153  0.80057532  0.55033618     0.79200
H1573       H  0.91707834  0.65364496  0.50929540     0.42300
H1574       H  0.05705677  0.65427271  0.98515231     0.41300
H1575       H  0.19512791  0.69600727  0.49750455     0.40900
H1576       H  0.19790344  0.78171782  0.98151232     0.38900
H1577       H  0.09428323  0.83778472  0.99022255     0.42000
H1578       H  0.95587103  0.83652197  0.51642120     0.36800
H1579       H  0.82899905  0.78048857  0.45256015     0.42900
H1580       H  0.82254277  0.71931924  0.96619987     0.39300
H1581       H  0.19338851  0.77533764  0.02912299     0.44200
H1582       H  0.89916902  0.83736352  0.49669161     0.43000
H1583       H  0.82075029  0.71607449  0.51592754     0.43100
H1584       H  0.11672303  0.65426910  0.99796353     0.43400
C1585       C  0.26547019  0.62151003  0.71024133     0.45300
H1586       H  0.25422532  0.61786297  0.67741879    -0.03700
C1587       C  0.28893240  0.62698939  0.78776837     0.45400
H1588       H  0.30056186  0.62977676  0.82061541    -0.03700
C1589       C  0.31636948  0.63736620  0.71635443    -0.17400
C1590       C  0.22207250  0.63739934  0.73528215    -0.17100
C1591       C  0.28084760  0.59493775  0.73116053    -0.17500
C1592       C  0.32929046  0.64067113  0.75835770    -0.17500
C1593       C  0.23509670  0.63949725  0.77748088    -0.17100
C1594       C  0.28594910  0.59748350  0.77433443    -0.17400
C1595       C  0.75741777  0.62662319  0.71098896     0.45300
H1596       H  0.75872931  0.62897019  0.67693787    -0.03700
C1597       C  0.75467793  0.62408066  0.79086794     0.45400
H1598       H  0.75066738  0.62329054  0.82500958    -0.03700
C1599       C  0.72002345  0.64722601  0.72958344    -0.17400
C1600       C  0.73826312  0.59892229  0.72600458    -0.17100
C1601       C  0.81142282  0.63302351  0.73149113    -0.17500
C1602       C  0.71887685  0.64620438  0.77284574    -0.17500
C1603       C  0.73382469  0.59850836  0.76938406    -0.17100
C1604       C  0.81242528  0.62987350  0.77479075    -0.17400
C1605       C  0.25472115  0.86166529  0.70417897     0.45300
H1606       H  0.25019479  0.85864928  0.67047657    -0.03700
C1607       C  0.25964320  0.86812909  0.78356096     0.45400
H1608       H  0.26167072  0.87217047  0.81727218    -0.03700
C1609       C  0.29025890  0.84089592  0.72633535    -0.17400
C1610       C  0.28109633  0.88822167  0.71566609    -0.17100
C1611       C  0.19949058  0.85965618  0.72514216    -0.17500
C1612       C  0.29183080  0.84489217  0.76978987    -0.17500
C1613       C  0.28425237  0.89168651  0.75899777    -0.17100
C1614       C  0.20320176  0.86025358  0.76805666    -0.17400
C1615       C  0.75437697  0.86518537  0.78619557     0.45300
H1616       H  0.76100492  0.86325138  0.82037695    -0.03700
C1617       C  0.73816244  0.87063440  0.70747685     0.45400
H1618       H  0.72992902  0.87389622  0.67436894    -0.03700
C1619       C  0.70872736  0.84770696  0.77008852    -0.17400
C1620       C  0.73639126  0.89356219  0.77394898    -0.17100
C1621       C  0.80344867  0.85620335  0.75957121    -0.17500
C1622       C  0.70030595  0.85074249  0.72772113    -0.17500
C1623       C  0.73115887  0.89686169  0.73120437    -0.17100
C1624       C  0.79334487  0.85913772  0.71640649    -0.17400
C1625       C  0.11805793  0.84508612  0.62792496    -0.02000
C1626       C  0.09895264  0.81996472  0.63960205     0.07700
C1627       C  0.09418577  0.81531115  0.68330570    -0.02100
C1628       C  0.11274490  0.83405357  0.71212246    -0.02100
C1629       C  0.15020759  0.85268779  0.69932894     0.07800
C1630       C  0.14555643  0.86080722  0.65743773    -0.02300
Br1631     Br  0.17298152  0.89440251  0.64167735    -0.00800
Br1632     Br  0.10278209  0.85971127  0.57381998    -0.00900
Br1633     Br  0.05890250  0.84550361  0.74930423    -0.00900
Br1634     Br  0.05933506  0.78530927  0.70681961    -0.00900
C1635       C  0.14489200  0.79961609  0.82547090    -0.02000
C1636       C  0.11692104  0.81154640  0.85772696     0.07700
C1637       C  0.11340759  0.83900732  0.85826263    -0.02100
C1638       C  0.13678628  0.85424191  0.82657238    -0.02100
C1639       C  0.16897816  0.84285609  0.79592137     0.07800
C1640       C  0.17157787  0.81489613  0.79562312    -0.02300
Br1641     Br  0.21344670  0.79552425  0.75779180    -0.00800
Br1642     Br  0.15191763  0.76187122  0.82508410    -0.00900
Br1643     Br  0.11805855  0.89018763  0.82220480    -0.00900
Br1644     Br  0.07790126  0.85633332  0.90303531    -0.00900
C1645       C  0.14897193  0.64608235  0.81705779    -0.02000
C1646       C  0.20220634  0.65324008  0.81089657     0.07700
C1647       C  0.22361747  0.67229506  0.83917619    -0.02100
C1648       C  0.19142847  0.68609717  0.86706092    -0.02100
C1649       C  0.13737098  0.68111841  0.86842810     0.07800
C1650       C  0.11689804  0.66003410  0.84517745    -0.02300
Br1651     Br  0.04684839  0.64813148  0.85658746    -0.00800
Br1652     Br  0.12246621  0.61404035  0.79401028    -0.00900
Br1653     Br  0.22172499  0.71121033  0.90583225    -0.00900
Br1654     Br  0.29639449  0.68070143  0.84280473    -0.00900
C1655       C  0.11421151  0.65765353  0.65393499    -0.02000
C1656       C  0.12000373  0.68501927  0.65116924     0.07700
C1657       C  0.15209018  0.69721961  0.68187811    -0.02100
C1658       C  0.18119579  0.68232222  0.71205060    -0.02100
C1659       C  0.17953244  0.65433707  0.71249182     0.07800
C1660       C  0.14197241  0.64279708  0.68469859    -0.02300
Br1661     Br  0.12512939  0.60662867  0.68961521    -0.00800
Br1662     Br  0.06846893  0.64012216  0.61447573    -0.00900
Br1663     Br  0.22535263  0.70159566  0.74995713    -0.00900
Br1664     Br  0.16071715  0.73459204  0.67946035    -0.00900
C1665       C  0.89858305  0.65193641  0.63969425    -0.02000
C1666       C  0.89622801  0.67960601  0.64010560     0.07700
C1667       C  0.87259696  0.69168868  0.67462378    -0.02100
C1668       C  0.84951982  0.67660687  0.70649591    -0.02100
C1669       C  0.84919823  0.64899649  0.70513396     0.07800
C1670       C  0.87744227  0.63699500  0.67288306    -0.02300
Br1671     Br  0.89557436  0.60068446  0.67892170    -0.00800
Br1672     Br  0.93059456  0.63384266  0.59415022    -0.00900
Br1673     Br  0.82292972  0.69468401  0.75351277    -0.00900
Br1674     Br  0.86791359  0.72930825  0.67721063    -0.00900
C1675       C  0.89686295  0.64447860  0.87489607    -0.02000
C1676       C  0.91808106  0.66867044  0.86150600     0.07700
C1677       C  0.92257211  0.67174789  0.81769316    -0.02100
C1678       C  0.90215329  0.65236439  0.79061938    -0.02100
C1679       C  0.86080075  0.63590481  0.80394206     0.07800
C1680       C  0.86433170  0.62944544  0.84742564    -0.02300
Br1681     Br  0.82311143  0.60290548  0.87347100    -0.00800
Br1682     Br  0.91604886  0.63026540  0.92877824    -0.00900
Br1683     Br  0.95473835  0.63769227  0.75557010    -0.00900
Br1684     Br  0.96234870  0.69946179  0.79238331    -0.00900
C1685       C  0.90273211  0.83891167  0.84866439    -0.02000
C1686       C  0.91156611  0.81187902  0.84352305     0.07700
C1687       C  0.89885491  0.80154304  0.80352459    -0.02100
C1688       C  0.86817841  0.81601395  0.77370959    -0.02100
C1689       C  0.85056838  0.84206628  0.78218952     0.07800
C1690       C  0.87347186  0.85355305  0.81858900    -0.02300
Br1691     Br  0.86868020  0.89030041  0.82636977    -0.00800
Br1692     Br  0.93534341  0.85696584  0.89519668    -0.00900
Br1693     Br  0.84493552  0.79650220  0.72611640    -0.00900
Br1694     Br  0.92064051  0.76663971  0.78956982    -0.00900
C1695       C  0.83201698  0.81342489  0.62632028    -0.02000
C1696       C  0.88686954  0.81473444  0.62789334     0.07700
C1697       C  0.91054582  0.83510307  0.65144138    -0.02100
C1698       C  0.88046570  0.85056289  0.67909761    -0.02100
C1699       C  0.82516608  0.84775851  0.68024524     0.07800
C1700       C  0.80174031  0.83181637  0.64784409    -0.02300
Br1701     Br  0.73610992  0.83890054  0.61962669    -0.00800
Br1702     Br  0.79806549  0.78650717  0.59288877    -0.00900
Br1703     Br  0.91416242  0.87788013  0.71116122    -0.00900
Br1704     Br  0.98204339  0.84419184  0.64169828    -0.00900
C1705       C  0.70059191  0.54915450  0.85596101    -0.02000
C1706       C  0.64510495  0.55087015  0.85814204     0.07700
C1707       C  0.61883868  0.56601936  0.82808427    -0.02100
C1708       C  0.64699439  0.57893598  0.79650003    -0.02100
C1709       C  0.70280746  0.57895072  0.79558055     0.07800
C1710       C  0.72888862  0.56236231  0.82423522    -0.02300
Br1711     Br  0.80119882  0.55315657  0.81406012    -0.00800
Br1712     Br  0.73861975  0.52893381  0.89640888    -0.00900
Br1713     Br  0.60600450  0.59224620  0.75172398    -0.00900
Br1714     Br  0.54363245  0.57107150  0.83214943    -0.00900
C1715       C  0.72300096  0.58088577  0.65090584    -0.02000
C1716       C  0.71927291  0.57747726  0.69465752     0.07700
C1717       C  0.68895178  0.55553416  0.70634833    -0.02100
C1718       C  0.64741812  0.54614525  0.68048677    -0.02100
C1719       C  0.64289216  0.55426967  0.63825011     0.07800
C1720       C  0.68333527  0.57136125  0.62351819    -0.02300
Br1721     Br  0.68400425  0.58617041  0.56766307    -0.00800
Br1722     Br  0.78664738  0.59280030  0.62555387    -0.00900
Br1723     Br  0.59962714  0.52142765  0.70509313    -0.00900
Br1724     Br  0.72243210  0.52897338  0.73876929    -0.00900
C1725       C  0.39774346  0.56194168  0.67343457    -0.02000
C1726       C  0.37322090  0.55241476  0.63711408     0.07700
C1727       C  0.31792063  0.55348439  0.63427384    -0.02100
C1728       C  0.28827572  0.56564834  0.66605291    -0.02100
C1729       C  0.31222939  0.57578589  0.70309834     0.07800
C1730       C  0.36763335  0.57103450  0.70716361    -0.02300
Br1731     Br  0.40486445  0.56832182  0.75858122    -0.00800
Br1732     Br  0.47419701  0.56287285  0.67690125    -0.00900
Br1733     Br  0.21349836  0.56468768  0.66059779    -0.00900
Br1734     Br  0.28190019  0.53655663  0.58817190    -0.00900
C1735       C  0.33661940  0.57018095  0.87511567    -0.02000
C1736       C  0.36105292  0.54673888  0.86197192     0.07700
C1737       C  0.34018802  0.53509104  0.82493128    -0.02100
C1738       C  0.30479283  0.54920641  0.79844342    -0.02100
C1739       C  0.29461525  0.57577616  0.80701584     0.07800
C1740       C  0.29915931  0.58247631  0.84948653    -0.02300
Br1741     Br  0.24545609  0.60292052  0.87561360    -0.00800
Br1742     Br  0.35877338  0.58947196  0.92412989    -0.00900
Br1743     Br  0.26373742  0.53086403  0.75688442    -0.00900
Br1744     Br  0.36037394  0.50073584  0.80896654    -0.00900
C1745       C  0.73196647  0.92536739  0.66614311    -0.02000
C1746       C  0.71218795  0.92108856  0.70658570     0.07700
C1747       C  0.66636128  0.93532508  0.71618051    -0.02100
C1748       C  0.63113642  0.94296458  0.68412024    -0.02100
C1749       C  0.64770522  0.94450683  0.64208411     0.07800
C1750       C  0.70094353  0.93755266  0.63453997    -0.02300
Br1751     Br  0.73392173  0.94514261  0.58226287    -0.00800
Br1752     Br  0.80412921  0.91660062  0.65569236    -0.00900
Br1753     Br  0.55929046  0.94860575  0.70007616    -0.00900
Br1754     Br  0.66924947  0.96065716  0.76011659    -0.00900
C1755       C  0.65233967  0.90663820  0.81174927    -0.02000
C1756       C  0.70716050  0.91006006  0.80564061     0.07700
C1757       C  0.73285300  0.92936853  0.83028024    -0.02100
C1758       C  0.70542414  0.94289219  0.86202301    -0.02100
C1759       C  0.65072783  0.93914936  0.86696468     0.07800
C1760       C  0.62572686  0.91974346  0.84351713    -0.02300
Br1761     Br  0.55464023  0.91016130  0.85716258    -0.00800
Br1762     Br  0.60795866  0.89220610  0.76978789    -0.00900
Br1763     Br  0.74337562  0.96593633  0.89892324    -0.00900
Br1764     Br  0.79902412  0.94325404  0.81232283    -0.00900
C1765       C  0.32323155  0.93599127  0.85191919    -0.02000
C1766       C  0.37804004  0.93979851  0.84811261     0.07700
C1767       C  0.40031911  0.93295122  0.80926454    -0.02100
C1768       C  0.37135639  0.91801071  0.77918323    -0.02100
C1769       C  0.31676100  0.91217849  0.78443469     0.07800
C1770       C  0.29319824  0.92421181  0.81926245    -0.02300
Br1771     Br  0.21899095  0.92925992  0.81867050    -0.00800
Br1772     Br  0.28698273  0.94887003  0.90023195    -0.00900
Br1773     Br  0.41132302  0.90583216  0.73316940    -0.00900
Br1774     Br  0.47062040  0.94447224  0.79538989    -0.00900
C1775       C  0.30870126  0.93289469  0.68542269    -0.02000
C1776       C  0.30854025  0.90516558  0.68265723     0.07700
C1777       C  0.34063439  0.89406746  0.65063565    -0.02100
C1778       C  0.37826454  0.90926764  0.62984498    -0.02100
C1779       C  0.37883281  0.93635647  0.63354744     0.07800
C1780       C  0.34349411  0.94824596  0.66104629    -0.02300
Br1781     Br  0.34283190  0.98559052  0.66513234    -0.00800
Br1782     Br  0.25722557  0.95052187  0.71831792    -0.00900
Br1783     Br  0.43301726  0.89277337  0.59775726    -0.00900
Br1784     Br  0.33405561  0.85948756  0.62821635    -0.00900
C1785       C  0.31351740  0.79606606  0.85825515    -0.02000
C1786       C  0.36743763  0.79192210  0.85380404     0.07700
C1787       C  0.39469254  0.80555771  0.82257636    -0.02100
C1788       C  0.37099109  0.82676392  0.80388255    -0.02100
C1789       C  0.31680441  0.82790485  0.80221806     0.07800
C1790       C  0.28991687  0.81649430  0.83646984    -0.02300
Br1791     Br  0.24632064  0.83651120  0.87293508    -0.00800
Br1792     Br  0.27258951  0.77567234  0.89673036    -0.00900
Br1793     Br  0.40457323  0.85932679  0.81711537    -0.00900
Br1794     Br  0.46516277  0.79795092  0.80610417    -0.00900
C1795       C  0.31749119  0.78802545  0.64212441    -0.02000
C1796       C  0.37200801  0.78584237  0.64478419     0.07700
C1797       C  0.39840879  0.79711987  0.67909500    -0.02100
C1798       C  0.37316035  0.81613791  0.70306141    -0.02100
C1799       C  0.31769792  0.81925841  0.70152446     0.07800
C1800       C  0.29049748  0.80408778  0.67032708    -0.02300
Br1801     Br  0.21762706  0.80666809  0.65896471    -0.00800
Br1802     Br  0.27977572  0.76773805  0.60012635    -0.00900
Br1803     Br  0.41879693  0.84384509  0.71900100    -0.00900
Br1804     Br  0.47049070  0.78843372  0.69216918    -0.00900
C1805       C  0.70288897  0.81763776  0.83277769    -0.02000
C1806       C  0.67675343  0.83150125  0.80019573     0.07700
C1807       C  0.62173901  0.83522965  0.80457953    -0.02100
C1808       C  0.59886284  0.83207723  0.84347306    -0.02100
C1809       C  0.62444999  0.81763460  0.87380311     0.07800
C1810       C  0.67625467  0.80998391  0.86866689    -0.02300
Br1811     Br  0.70961786  0.78819079  0.91056689    -0.00800
Br1812     Br  0.77169338  0.80430370  0.82747926    -0.00900
Br1813     Br  0.53068307  0.84576987  0.85548574    -0.00900
Br1814     Br  0.57136090  0.83193231  0.75978141    -0.00900
C1815       C  0.62452383  0.84594812  0.67626136    -0.02000
C1816       C  0.66458941  0.83444904  0.70120430     0.07700
C1817       C  0.67289576  0.80733697  0.69683956    -0.02100
C1818       C  0.64710302  0.79371098  0.66484249    -0.02100
C1819       C  0.60195954  0.80434560  0.64669732     0.07800
C1820       C  0.58896957  0.83018318  0.65432868    -0.02300
Br1821     Br  0.52388615  0.84408776  0.63242586    -0.00800
Br1822     Br  0.61708523  0.88229668  0.66820199    -0.00900
Br1823     Br  0.68181220  0.76479044  0.63863315    -0.00900
Br1824     Br  0.71825822  0.78771465  0.73217185    -0.00900
C1825       C  0.63517642  0.67114892  0.79382517    -0.02000
C1826       C  0.68887131  0.66452956  0.80117791     0.07700
C1827       C  0.71559498  0.67816075  0.83416151    -0.02100
C1828       C  0.69064888  0.69693977  0.85829678    -0.02100
C1829       C  0.63784014  0.70223706  0.85143245     0.07800
C1830       C  0.61146400  0.69111070  0.81695605    -0.02300
Br1831     Br  0.54584004  0.70539804  0.79748798    -0.00800
Br1832     Br  0.59066906  0.65417612  0.75338422    -0.00900
Br1833     Br  0.73001067  0.71786626  0.89896755    -0.00900
Br1834     Br  0.78700443  0.67411784  0.84822408    -0.00900
C1835       C  0.64412906  0.70393704  0.67541174    -0.02000
C1836       C  0.63939598  0.69353458  0.63455355     0.07700
C1837       C  0.65630939  0.66812558  0.62770056    -0.02100
C1838       C  0.67092568  0.65325010  0.66208203    -0.02100
C1839       C  0.69000878  0.66489650  0.69941428     0.07800
C1840       C  0.67767448  0.69182899  0.70474825    -0.02300
Br1841     Br  0.70372204  0.71451697  0.74809780    -0.00800
Br1842     Br  0.59811859  0.73102291  0.69526763    -0.00900
Br1843     Br  0.63405989  0.62116240  0.66462246    -0.00900
Br1844     Br  0.64396971  0.65067810  0.57495555    -0.00900
C1845       C  0.40629024  0.64692177  0.80967333    -0.02000
C1846       C  0.37394964  0.65706729  0.77685207     0.07700
C1847       C  0.37953969  0.68421621  0.76822250    -0.02100
C1848       C  0.40428481  0.70063707  0.79817017    -0.02100
C1849       C  0.42858302  0.68971516  0.83372257     0.07800
C1850       C  0.43734242  0.66314912  0.83474009    -0.02300
Br1851     Br  0.49188480  0.64940790  0.87150657    -0.00800
Br1852     Br  0.40738034  0.61184396  0.82646049    -0.00900
Br1853     Br  0.39971237  0.73776738  0.79242962    -0.00900
Br1854     Br  0.35010210  0.70075499  0.71955523    -0.00900
C1855       C  0.35176484  0.67152015  0.61459344    -0.02000
C1856       C  0.40620791  0.66991166  0.61583760     0.07700
C1857       C  0.43229641  0.65539044  0.64618181    -0.02100
C1858       C  0.40363741  0.64377895  0.67832580    -0.02100
C1859       C  0.34780456  0.64616493  0.67929357     0.07800
C1860       C  0.32240182  0.65852777  0.64449690    -0.02300
Br1861     Br  0.24840746  0.66025590  0.63436561    -0.00800
Br1862     Br  0.31751614  0.69410495  0.57378555    -0.00900
Br1863     Br  0.44405612  0.62470708  0.71848106    -0.00900
Br1864     Br  0.50769670  0.65199602  0.64296963    -0.00900
loop_ 
_geom_bond_atom_site_label_1 
_geom_bond_atom_site_label_2 
_geom_bond_distance 
_geom_bond_site_symmetry_2 
_ccdc_geom_bond_type 
O1          Zr13   2.394   1_554  S
O1            C3   1.279       .  A
O2          Zr39   2.384       .  S
O2            C3   1.278       .  A
C3          C458   1.439       .  S
O4         Zr482   2.431       .  S
O4            C6   1.289       .  A
O5          Zr40   2.376       .  S
O5            C6   1.274       .  A
C6          C431   1.460       .  S
O7          Zr16   2.452   1_554  S
O7            C9   1.290       .  A
O8          Zr39   2.365       .  S
O8            C9   1.272       .  A
C9          C438   1.468       .  S
O10        Zr479   2.438       .  S
O10          C12   1.288       .  A
O11         Zr40   2.399       .  S
O11          C12   1.278       .  A
C12         C451   1.474       .  S
Zr13        O476   2.444       .  S
Zr13         O14   2.434       .  S
Zr13        O481   2.435       .  S
Zr13         O19   2.381   1_556  S
Zr13         O45   2.374   1_556  S
Zr13        O486   2.341       .  S
Zr13        O509   2.350       .  S
O14          H57   0.990   1_556  S
O15        Zr479   2.435       .  S
O15         H522   0.990       .  S
O15         H526   0.990       .  S
Zr16        O470   2.425       .  S
Zr16         O17   2.432       .  S
Zr16        O484   2.434       .  S
Zr16         O19   2.366   1_556  S
Zr16         O44   2.349   1_556  S
Zr16        O486   2.371       .  S
Zr16        O512   2.364       .  S
O17          H61   0.991       .  S
O17         H524   0.990       .  S
O18        Zr482   2.434       .  S
O18         H517   0.990       .  S
O19         Zr39   2.371       .  S
O20         Zr40   2.367       .  S
O20        Zr479   2.344       .  S
O20        Zr482   2.362       .  S
O20          H47   0.965       .  S
O21         Zr33   2.443       .  S
O21          C23   1.290       .  A
O22         Zr40   2.355       .  S
O22          C23   1.270       .  A
C23         C388   1.464       .  S
O24        Zr502   2.369       .  S
O24          C26   1.273       .  A
O25         Zr39   2.403       .  S
O25          C26   1.280       .  A
C26         C421   1.434       .  S
O27         Zr36   2.377       .  S
O27          C29   1.273       .  A
O28         Zr40   2.403       .  S
O28          C29   1.282       .  A
C29         C411   1.440       .  S
O30        Zr499   2.475       .  S
O30          C32   1.296       .  A
O31         Zr39   2.374       .  S
O31          C32   1.274       .  A
C32         C398   1.477       .  S
Zr33        O496   2.475       .  S
Zr33         O35   2.434       .  S
Zr33        O500   2.434       .  S
Zr33         O41   2.380       .  S
Zr33         O43   2.376       .  S
Zr33        O508   2.366       .  S
Zr33        O511   2.359       .  S
O34        Zr499   2.437       .  S
O34         H520   0.990       .  S
O34         H525   0.990   1_554  S
O35          H55   0.990       .  S
Zr36        O490   2.383       .  S
Zr36         O37   2.436       .  S
Zr36        O504   2.440       .  S
Zr36         O41   2.359       .  S
Zr36        O508   2.360       .  S
Zr36        O510   2.356       .  S
Zr36         O46   2.275       .  S
O37         H519   0.989       .  S
O38        Zr502   2.440       .  S
O38         H518   0.990       .  S
O38         H528   0.990       .  S
Zr39         O42   2.371       .  S
Zr39         O44   2.366       .  S
Zr39         O45   2.374       .  S
Zr40         O41   2.376       .  S
Zr40         O43   2.367       .  S
Zr40         O46   2.260       .  S
O41          H49   0.966       .  S
O42        Zr499   2.363       .  S
O42        Zr502   2.365       .  S
O43        Zr479   2.354       .  S
O44        Zr502   2.360       .  S
O44          H48   0.964       .  S
O45        Zr499   2.359       .  S
O45          H50   0.966       .  S
O46        Zr482   2.276       .  S
H51         O484   0.990       .  S
H52         O504   0.990       .  S
H53         O503   0.990   1_556  S
H54         O500   0.990       .  S
H56         O481   0.990       .  S
H58         O483   0.990       .  S
H59         O500   0.990       .  S
H60         O481   0.990       .  S
H62         O504   0.990       .  S
O63         Zr75   2.447   1_554  S
O63          C65   1.291       .  A
O64        Zr101   2.468       .  S
O64          C65   1.295       .  A
C65         C381   1.493       .  S
O66        Zr544   2.413       .  S
O66          C68   1.279       .  A
O67        Zr102   2.489       .  S
O67          C68   1.303       .  A
C68         C361   1.489       .  S
O69         Zr78   2.483       .  S
O69          C71   1.294       .  A
O70        Zr101   2.453       .  S
O70          C71   1.292       .  A
C71         C351   1.522       .  S
O72        Zr541   2.488       .  S
O72          C74   1.296       .  A
O73        Zr102   2.457       .  S
O73          C74   1.294       .  A
C74         C368   1.530       .  S
Zr75        O538   2.489       .  S
Zr75         O76   2.434       .  S
Zr75        O543   2.437       .  S
Zr75         O81   2.398   1_556  S
Zr75        O107   2.374   1_556  S
Zr75        O548   2.374       .  S
Zr75        O571   2.355       .  S
O76         H119   0.990       .  S
O77        Zr541   2.437       .  S
O77         H584   0.990       .  S
O77         H588   0.991       .  S
Zr78        O532   2.428   1_554  S
Zr78         O79   2.438       .  S
Zr78        O546   2.437       .  S
Zr78         O81   2.360       .  S
Zr78        O106   2.363       .  S
Zr78        O548   2.383   1_554  S
Zr78        O574   2.391   1_554  S
O79         H123   0.990       .  S
O79         H586   0.990   1_554  S
O80        Zr544   2.430       .  S
O80         H579   0.991       .  S
O81        Zr101   2.406       .  S
O82        Zr102   2.407       .  S
O82        Zr541   2.367       .  S
O82        Zr544   2.390       .  S
O82         H109   0.971       .  S
O83         Zr95   2.413       .  S
O83          C85   1.278       .  A
O84       Zr1034   2.505   1_545  S
O84          C85   1.302       .  A
C85         C338   1.526       .  S
O86        Zr564   2.414   1_554  S
O86          C88   1.279       .  A
O87       Zr1033   2.476   1_545  S
O87          C88   1.295       .  A
C88         C321   1.516       .  S
O89         Zr98   2.462       .  S
O89          C91   1.290       .  A
O90       Zr1034   2.449   1_545  S
O90          C91   1.293       .  A
C91         C308   1.502       .  S
O92        Zr561   2.450   1_554  S
O92          C94   1.288       .  A
O93       Zr1033   2.465   1_545  S
O93          C94   1.296       .  A
C94         C328   1.504       .  S
Zr95        O558   2.455       .  S
Zr95        O562   2.437       .  S
Zr95        O563   2.430       .  S
Zr95        O103   2.384       .  S
Zr95        O570   2.373       .  S
Zr95       O1505   2.351   1_545  S
Zr95       O1037   2.365   1_545  S
O96        Zr561   2.437       .  S
O96         H582   0.990       .  S
O96         H587   0.990   1_556  S
O97        Zr561   2.432       .  S
O97         H583   0.990       .  S
Zr98        O552   2.432       .  S
Zr98         O99   2.435       .  S
Zr98        O566   2.435       .  S
Zr98        O103   2.375       .  S
Zr98        O570   2.384       .  S
Zr98       O1040   2.358   1_545  S
Zr98       O1504   2.374   1_545  S
O99         H581   0.989       .  S
O100       Zr564   2.434   1_554  S
O100        H580   0.989   1_554  S
O100        H590   0.990   1_554  S
Zr101      O1019   2.489       .  S
Zr101      O1025   2.452       .  S
Zr101       O106   2.397       .  S
Zr101       O107   2.395       .  S
Zr101      O1036   2.393       .  S
Zr102      O1016   2.521       .  S
Zr102      O1022   2.468       .  S
Zr102       O105   2.385       .  S
Zr102       O108   2.387       .  S
Zr102      O1035   2.399       .  S
O103      Zr1034   2.398   1_545  S
O103        H111   0.965       .  S
O104       Zr561   2.363   1_554  S
O104       Zr564   2.382   1_554  S
O104      Zr1033   2.395   1_545  S
O105       Zr541   2.359       .  S
O105      Zr1027   2.370       .  S
O106      Zr1496   2.371   1_554  S
O106        H110   0.964       .  S
O107      Zr1493   2.357   1_554  S
O107        H112   0.966       .  S
O108       Zr544   2.381       .  S
O108      Zr1030   2.354       .  S
H113        O546   0.990   1_556  S
H114        O566   0.990       .  S
H115        O565   0.990       .  S
H116        O562   0.990       .  S
H117        O563   0.990       .  S
H118        O543   0.990       .  S
H120        O545   0.990       .  S
H121        O562   0.990       .  S
H122        O543   0.990   1_554  S
H124        O566   0.990       .  S
O125       Zr137   2.465   1_554  S
O125        C127   1.293       .  A
O126       Zr163   2.482   1_655  S
O126        C127   1.298       .  A
C127        C298   1.505       .  S
O128       Zr606   2.462       .  S
O128        C130   1.291       .  A
O129       Zr164   2.450   1_655  S
O129        C130   1.290       .  A
C130        C278   1.521       .  S
O131       Zr140   2.480   1_554  S
O131        C133   1.293       .  A
O132       Zr163   2.464   1_655  S
O132        C133   1.296       .  A
C133        C268   1.512       .  S
O134       Zr603   2.483       .  S
O134        C136   1.296       .  A
O135       Zr164   2.488   1_655  S
O135        C136   1.299       .  A
C136        C288   1.545       .  S
Zr137       O600   2.486       .  S
Zr137       O138   2.435       .  S
Zr137       O605   2.436       .  S
Zr137       O143   2.397   1_556  S
Zr137       O169   2.372   1_656  S
Zr137       O610   2.381       .  S
Zr137       O633   2.370   1_655  S
O138        H181   0.990       .  S
O139       Zr603   2.439       .  S
O139        H646   0.990       .  S
O139        H650   0.989       .  S
Zr140       O594   2.474       .  S
Zr140       O141   2.434       .  S
Zr140       O608   2.432   1_556  S
Zr140       O143   2.375   1_556  S
Zr140       O168   2.383   1_556  S
Zr140       O610   2.382       .  S
Zr140       O636   2.374   1_655  S
O141        H185   0.990   1_556  S
O141        H648   0.990       .  S
O142       Zr606   2.432       .  S
O142        H641   0.988       .  S
O143       Zr163   2.408   1_655  S
O144       Zr164   2.395   1_655  S
O144       Zr603   2.379       .  S
O144       Zr606   2.378       .  S
O144        H171   0.969       .  S
O145       Zr157   2.462       .  S
O145        C147   1.291       .  A
O146       Zr164   2.435       .  S
O146        C147   1.290       .  A
C147        C238   1.496       .  S
O148       Zr626   2.482       .  S
O148        C150   1.296       .  A
O149       Zr163   2.506       .  S
O149        C150   1.303       .  A
C150        C258   1.534       .  S
O151       Zr160   2.457       .  S
O151        C153   1.291       .  A
O152       Zr164   2.456       .  S
O152        C153   1.293       .  A
C153        C251   1.494       .  S
O154       Zr623   2.482       .  S
O154        C156   1.295       .  A
O155       Zr163   2.438       .  S
O155        C156   1.288       .  A
C156        C228   1.518       .  S
Zr157       O620   2.477       .  S
Zr157       O158   2.435       .  S
Zr157       O625   2.425       .  S
Zr157       O165   2.378       .  S
Zr157       O167   2.371       .  S
Zr157       O632   2.383       .  S
Zr157       O635   2.369       .  S
O158        H178   0.990       .  S
O158        H183   0.990       .  S
O159       Zr623   2.433   1_556  S
O159        H645   0.990       .  S
Zr160       O614   2.487       .  S
Zr160       O161   2.435       .  S
Zr160       O628   2.437       .  S
Zr160       O165   2.390       .  S
Zr160       O170   2.384       .  S
Zr160       O632   2.382       .  S
Zr160       O634   2.362   1_455  S
O161        H643   0.990       .  S
O162       Zr626   2.439       .  S
O162        H642   0.990       .  S
O162        H652   0.990   1_554  S
Zr163       O166   2.399       .  S
Zr163       O168   2.395   1_455  S
Zr163       O169   2.409       .  S
Zr164       O165   2.407       .  S
Zr164       O167   2.379       .  S
Zr164       O170   2.396       .  S
O165        H173   0.968       .  S
O166       Zr623   2.379       .  S
O166       Zr626   2.387       .  S
O167       Zr603   2.360   1_455  S
O168       Zr626   2.369   1_655  S
O168        H172   0.963       .  S
O169       Zr623   2.375       .  S
O169        H174   0.961       .  S
O170       Zr606   2.376   1_455  S
H175        O608   0.989       .  S
H176        O628   0.990       .  S
H177        O627   0.990       .  S
H179        O625   0.990       .  S
H180        O605   0.990   1_554  S
H182        O607   0.990       .  S
H184        O605   0.990       .  S
H186        O628   0.990       .  S
C187        H188   1.101       .  S
C187        C193   1.563       .  S
C187        C192   1.601       .  S
C187        C191   1.542       .  S
C189        H190   1.098       .  S
C189        C195   1.551       .  S
C189        C194   1.573       .  S
C189        C196   1.578       .  S
C191        C194   1.396       .  D
C191        C461   1.520       .  S
C192        C195   1.390       .  D
C192        C261   1.562       .  S
C193        C196   1.387       .  D
C193        C331   1.553       .  S
C194        C448   1.528       .  S
C195        C248   1.546       .  S
C196        C341   1.544       .  S
C197        H198   1.092       .  S
C197        C203   1.544       .  S
C197        C202   1.573       .  S
C197        C201   1.552       .  S
C199        H200   1.098       .  S
C199        C205   1.573       .  S
C199        C204   1.557       .  S
C199        C206   1.592       .  S
C201        C204   1.379       .  D
C201        C441   1.516       .  S
C202        C205   1.397       .  D
C202        C318   1.562       .  S
C203        C206   1.400       .  D
C203        C271   1.527       .  S
C204        C428   1.514       .  S
C205        C311   1.531       .  S
C206        C281   1.565       .  S
C207        H208   1.095       .  S
C207        C213   1.569       .  S
C207        C212   1.549       .  S
C207        C211   1.564       .  S
C209        H210   1.099       .  S
C209        C215   1.577       .  S
C209        C214   1.522       .  S
C209        C216   1.572       .  S
C211        C214   1.408       .  D
C211        C401   1.540       .  S
C212        C215   1.403       .  D
C212        C378   1.537       .  S
C213        C216   1.379       .  D
C213        C231   1.536       .  S
C214        C391   1.498       .  S
C215        C371   1.564       .  S
C216        C241   1.544       .  S
C217        H218   1.110       .  S
C217        C223   1.592       .  S
C217        C222   1.580       .  S
C217        C221   1.543       .  S
C219        H220   1.092       .  S
C219        C225   1.560       .  S
C219        C224   1.554       .  S
C219        C226   1.555       .  S
C221        C224   1.379       .  D
C221        C408   1.520       .  S
C222        C225   1.385       .  D
C222        C358   1.524       .  S
C223        C226   1.409       .  D
C223        C291   1.570       .  S
C224        C418   1.486       .  S
C225        C348   1.554       .  S
C226        C301   1.544       .  S
C227        C228   1.431       .  A
C227        C232   1.419       .  A
C227       Br234   1.926       .  S
C228        C229   1.429       .  A
C229        C230   1.409       .  A
C229       Br236   1.934       .  S
C230        C231   1.411       .  A
C230       Br235   1.923       .  S
C231        C232   1.409       .  A
C232       Br233   1.929       .  S
C237        C238   1.401       .  A
C237        C242   1.415       .  A
C237       Br244   1.946       .  S
C238        C239   1.412       .  A
C239        C240   1.421       .  A
C239       Br246   1.926       .  S
C240        C241   1.421       .  A
C240       Br245   1.917       .  S
C241        C242   1.439       .  A
C242       Br243   1.902       .  S
C247        C248   1.422       .  A
C247        C252   1.422       .  A
C247       Br254   1.919       .  S
C248        C249   1.435       .  A
C249        C250   1.412       .  A
C249       Br256   1.899       .  S
C250        C251   1.397       .  A
C250       Br255   1.944       .  S
C251        C252   1.407       .  A
C252       Br253   1.915       .  S
C257        C258   1.418       .  A
C257        C262   1.428       .  A
C257       Br264   1.924       .  S
C258        C259   1.414       .  A
C259        C260   1.433       .  A
C259       Br266   1.933       .  S
C260        C261   1.436       .  A
C260       Br265   1.915       .  S
C261        C262   1.421       .  A
C262       Br263   1.912       .  S
C267        C268   1.422       .  A
C267        C272   1.423       .  A
C267       Br274   1.925       .  S
C268        C269   1.409       .  A
C269        C270   1.415       .  A
C269       Br276   1.935       .  S
C270        C271   1.418       .  A
C270       Br275   1.902       .  S
C271        C272   1.414       .  A
C272       Br273   1.934       .  S
C277        C278   1.421       .  A
C277        C282   1.423       .  A
C277       Br284   1.935       .  S
C278        C279   1.420       .  A
C279        C280   1.413       .  A
C279       Br286   1.930       .  S
C280        C281   1.416       .  A
C280       Br285   1.919       .  S
C281        C282   1.437       .  A
C282       Br283   1.918       .  S
C287        C288   1.421       .  A
C287        C292   1.425       .  A
C287       Br294   1.930       .  S
C288        C289   1.422       .  A
C289        C290   1.438       .  A
C289       Br296   1.938       .  S
C290        C291   1.440       .  A
C290       Br295   1.913       .  S
C291        C292   1.418       .  A
C292       Br293   1.912       .  S
C297        C298   1.400       .  A
C297        C302   1.411       .  A
C297       Br304   1.940       .  S
C298        C299   1.417       .  A
C299        C300   1.428       .  A
C299       Br306   1.912       .  S
C300        C301   1.420       .  A
C300       Br305   1.928       .  S
C301        C302   1.440       .  A
C302       Br303   1.925       .  S
C307        C308   1.417       .  A
C307        C312   1.418       .  A
C307       Br314   1.917       .  S
C308        C309   1.405       .  A
C309        C310   1.414       .  A
C309       Br316   1.943       .  S
C310        C311   1.428       .  A
C310       Br315   1.901       .  S
C311        C312   1.412       .  A
C312       Br313   1.935       .  S
C317        C318   1.424       .  A
C317        C322   1.415       .  A
C317       Br324   1.926       .  S
C318        C319   1.417       .  A
C319        C320   1.416       .  A
C319       Br326   1.914       .  S
C320        C321   1.416       .  A
C320       Br325   1.928       .  S
C321        C322   1.428       .  A
C322       Br323   1.944       .  S
C327        C328   1.401       .  A
C327        C332   1.413       .  A
C327       Br334   1.943       .  S
C328        C329   1.415       .  A
C329        C330   1.423       .  A
C329       Br336   1.929       .  S
C330        C331   1.420       .  A
C330       Br335   1.914       .  S
C331        C332   1.432       .  A
C332       Br333   1.897       .  S
C337        C338   1.439       .  A
C337        C342   1.412       .  A
C337       Br344   1.936       .  S
C338        C339   1.423       .  A
C339        C340   1.424       .  A
C339       Br346   1.924       .  S
C340        C341   1.415       .  A
C340       Br345   1.919       .  S
C341        C342   1.404       .  A
C342       Br343   1.933       .  S
C347        C348   1.416       .  A
C347        C352   1.424       .  A
C347       Br354   1.928       .  S
C348        C349   1.423       .  A
C349        C350   1.413       .  A
C349       Br356   1.915       .  S
C350        C351   1.419       .  A
C350       Br355   1.932       .  S
C351        C352   1.425       .  A
C352       Br353   1.927       .  S
C357        C358   1.421       .  A
C357        C362   1.401       .  A
C357       Br364   1.889       .  S
C358        C359   1.419       .  A
C359        C360   1.424       .  A
C359       Br366   1.922       .  S
C360        C361   1.414       .  A
C360       Br365   1.917       .  S
C361        C362   1.391       .  A
C362       Br363   1.930       .  S
C367        C368   1.416       .  A
C367        C372   1.425       .  A
C367       Br374   1.932       .  S
C368        C369   1.417       .  A
C369        C370   1.428       .  A
C369       Br376   1.936       .  S
C370        C371   1.434       .  A
C370       Br375   1.909       .  S
C371        C372   1.421       .  A
C372       Br373   1.911       .  S
C377        C378   1.419       .  A
C377        C382   1.422       .  A
C377       Br384   1.926       .  S
C378        C379   1.441       .  A
C379        C380   1.410       .  A
C379       Br386   1.923       .  S
C380        C381   1.400       .  A
C380       Br385   1.945       .  S
C381        C382   1.412       .  A
C382       Br383   1.917       .  S
C387        C388   1.400       .  A
C387        C392   1.396       .  A
C387       Br394   1.934       .  S
C388        C389   1.408       .  A
C389        C390   1.385       .  A
C389       Br396   1.919       .  S
C390        C391   1.388       .  A
C390       Br395   1.919       .  S
C391        C392   1.427       .  A
C392       Br393   1.925       .  S
C397        C398   1.389       .  A
C397        C402   1.408       .  A
C397       Br404   1.942       .  S
C398        C399   1.402       .  A
C399        C400   1.404       .  A
C399       Br406   1.931       .  S
C400        C401   1.421       .  A
C400       Br405   1.897       .  S
C401        C402   1.436       .  A
C402       Br403   1.888       .  S
C407        C408   1.426       .  A
C407        C412   1.397       .  A
C407       Br414   1.890       .  S
C408        C409   1.425       .  A
C409        C410   1.393       .  A
C409       Br416   1.919       .  S
C410        C411   1.383       .  A
C410       Br415   1.923       .  S
C411        C412   1.388       .  A
C412       Br413   1.941       .  S
C417        C418   1.421       .  A
C417        C422   1.393       .  A
C417       Br424   1.896       .  S
C418        C419   1.417       .  A
C419        C420   1.391       .  A
C419       Br426   1.902       .  S
C420        C421   1.394       .  A
C420       Br425   1.934       .  S
C421        C422   1.394       .  A
C422       Br423   1.939       .  S
C427        C428   1.422       .  A
C427        C432   1.406       .  A
C427       Br434   1.909       .  S
C428        C429   1.424       .  A
C429        C430   1.393       .  A
C429       Br436   1.874       .  S
C430        C431   1.387       .  A
C430       Br435   1.949       .  S
C431        C432   1.405       .  A
C432       Br433   1.927       .  S
C437        C438   1.419       .  A
C437        C442   1.411       .  A
C437       Br444   1.936       .  S
C438        C439   1.396       .  A
C439        C440   1.376       .  A
C439       Br446   1.920       .  S
C440        C441   1.405       .  A
C440       Br445   1.894       .  S
C441        C442   1.430       .  A
C442       Br443   1.918       .  S
C447        C448   1.432       .  A
C447        C452   1.396       .  A
C447       Br454   1.898       .  S
C448        C449   1.433       .  A
C449        C450   1.417       .  A
C449       Br456   1.923       .  S
C450        C451   1.407       .  A
C450       Br455   1.928       .  S
C451        C452   1.391       .  A
C452       Br453   1.945       .  S
C457        C458   1.389       .  A
C457        C462   1.394       .  A
C457       Br464   1.952       .  S
C458        C459   1.389       .  A
C459        C460   1.403       .  A
C459       Br466   1.939       .  S
C460        C461   1.436       .  A
C460       Br465   1.912       .  S
C461        C462   1.438       .  A
C462       Br463   1.915       .  S
O467       Zr479   2.387       .  S
O467        C469   1.278       .  A
O468       Zr505   2.377       .  S
O468        C469   1.277       .  A
C469        C924   1.429       .  S
O470        C472   1.285       .  A
O471       Zr506   2.406       .  S
O471        C472   1.280       .  A
C472        C897   1.474       .  S
O473       Zr482   2.450       .  S
O473        C475   1.288       .  A
O474       Zr505   2.383       .  S
O474        C475   1.275       .  A
C475        C904   1.478       .  S
O476        C478   1.289       .  A
O477       Zr506   2.402       .  S
O477        C478   1.280       .  A
C478        C917   1.479       .  S
Zr479       O480   2.435       .  S
Zr479       O485   2.385       .  S
Zr479       O511   2.377       .  S
O480        H523   0.990       .  S
Zr482       O483   2.434       .  S
Zr482       O485   2.358       .  S
Zr482       O510   2.357       .  S
O483        H527   0.990       .  S
O485       Zr505   2.373       .  S
O486       Zr506   2.364       .  S
O486        H513   0.965       .  S
O487       Zr499   2.442   1_556  S
O487        C489   1.290       .  A
O488       Zr506   2.355       .  S
O488        C489   1.271       .  A
C489        C854   1.462       .  S
O490        C492   1.276       .  A
O491       Zr505   2.391       .  S
O491        C492   1.278       .  A
C492        C887   1.436       .  S
O493       Zr502   2.377   1_556  S
O493        C495   1.273       .  A
O494       Zr506   2.407       .  S
O494        C495   1.284       .  A
C495        C877   1.441       .  S
O496        C498   1.296       .  A
O497       Zr505   2.383       .  S
O497        C498   1.276       .  A
C498        C864   1.481       .  S
Zr499       O501   2.434       .  S
Zr499       O507   2.386   1_554  S
Zr499       O509   2.374   1_554  S
O501        H521   0.990   1_554  S
Zr502       O503   2.436       .  S
Zr502       O507   2.362   1_554  S
Zr502       O512   2.371   1_554  S
Zr505       O508   2.376       .  S
Zr505       O510   2.371       .  S
Zr505       O511   2.377       .  S
Zr506       O507   2.385       .  S
Zr506       O509   2.371       .  S
Zr506       O512   2.361       .  S
O507        H515   0.965       .  S
O510        H514   0.968       .  S
O511        H516   0.963       .  S
O529       Zr541   2.446       .  S
O529        C531   1.289       .  A
O530       Zr567   2.458       .  S
O530        C531   1.293       .  A
C531        C847   1.490       .  S
O532        C534   1.282       .  A
O533       Zr568   2.476       .  S
O533        C534   1.300       .  A
C534        C827   1.491       .  S
O535       Zr544   2.477       .  S
O535        C537   1.293       .  A
O536       Zr567   2.469       .  S
O536        C537   1.295       .  A
C537        C817   1.529       .  S
O538        C540   1.297       .  A
O539       Zr568   2.442       .  S
O539        C540   1.290       .  A
C540        C834   1.527       .  S
Zr541       O542   2.435       .  S
Zr541       O547   2.393       .  S
Zr541       O573   2.389       .  S
O542        H585   0.990       .  S
Zr544       O545   2.433       .  S
Zr544       O547   2.366       .  S
Zr544       O572   2.353       .  S
O545        H589   0.990       .  S
O547       Zr567   2.407       .  S
O548       Zr568   2.408       .  S
O548        H575   0.971       .  S
O549       Zr561   2.400       .  S
O549        C551   1.276       .  A
O550      Zr1500   2.512   1_545  S
O550        C551   1.304       .  A
C551        C804   1.518       .  S
O552        C554   1.283       .  A
O553      Zr1499   2.482   1_545  S
O553        C554   1.296       .  A
C554        C787   1.525       .  S
O555       Zr564   2.464       .  S
O555        C557   1.290       .  A
O556      Zr1500   2.452   1_545  S
O556        C557   1.294       .  A
C557        C774   1.504       .  S
O558        C560   1.289       .  A
O559      Zr1499   2.453   1_545  S
O559        C560   1.293       .  A
C560        C794   1.507       .  S
Zr561       O569   2.385       .  S
Zr561      O1039   2.353   1_546  S
Zr561      O1503   2.374   1_545  S
Zr564       O565   2.436       .  S
Zr564       O569   2.368       .  S
Zr564      O1506   2.353   1_545  S
Zr564      O1038   2.379   1_546  S
Zr567      O1485   2.479       .  S
Zr567      O1491   2.449       .  S
Zr567      O1502   2.393       .  S
Zr567       O572   2.388       .  S
Zr567       O573   2.405       .  S
Zr568      O1482   2.515       .  S
Zr568      O1488   2.466       .  S
Zr568      O1501   2.393       .  S
Zr568       O571   2.383       .  S
Zr568       O574   2.393       .  S
O569      Zr1500   2.400   1_545  S
O569        H577   0.965       .  S
O570      Zr1499   2.395   1_545  S
O571      Zr1493   2.368       .  S
O572      Zr1030   2.371       .  S
O572        H576   0.965       .  S
O573      Zr1027   2.361       .  S
O573        H578   0.967       .  S
O574      Zr1496   2.361       .  S
O591       Zr603   2.451       .  S
O591        C593   1.290       .  A
O592       Zr629   2.461   1_655  S
O592        C593   1.294       .  A
C593        C764   1.492       .  S
O594        C596   1.294       .  A
O595       Zr630   2.446   1_655  S
O595        C596   1.289       .  A
C596        C744   1.522       .  S
O597       Zr606   2.473       .  S
O597        C599   1.292       .  A
O598       Zr629   2.452   1_655  S
O598        C599   1.293       .  A
C599        C734   1.505       .  S
O600        C602   1.296       .  A
O601       Zr630   2.478   1_655  S
O601        C602   1.296       .  A
C602        C754   1.540       .  S
Zr603       O604   2.435       .  S
Zr603       O609   2.395       .  S
Zr603       O635   2.374   1_655  S
O604        H647   0.990       .  S
Zr606       O607   2.437       .  S
Zr606       O609   2.371       .  S
Zr606       O634   2.388       .  S
O607        H651   0.990       .  S
O609       Zr629   2.414   1_655  S
O610       Zr630   2.397   1_655  S
O610        H637   0.969       .  S
O611       Zr623   2.471   1_556  S
O611        C613   1.292       .  A
O612       Zr630   2.439       .  S
O612        C613   1.290       .  A
C613        C704   1.502       .  S
O614        C616   1.296       .  A
O615       Zr629   2.504       .  S
O615        C616   1.302       .  A
C616        C724   1.535       .  S
O617       Zr626   2.466   1_556  S
O617        C619   1.293       .  A
O618       Zr630   2.459       .  S
O618        C619   1.293       .  A
C619        C717   1.497       .  S
O620        C622   1.294       .  A
O621       Zr629   2.450       .  S
O621        C622   1.291       .  A
C622        C694   1.520       .  S
Zr623       O624   2.435       .  S
Zr623       O631   2.372   1_554  S
Zr623       O633   2.379   1_554  S
O624        H644   0.990   1_554  S
O624        H649   0.990       .  S
Zr626       O627   2.434       .  S
Zr626       O631   2.390   1_554  S
Zr626       O636   2.380   1_554  S
Zr629       O632   2.392       .  S
Zr629       O634   2.392   1_455  S
Zr629       O635   2.406       .  S
Zr630       O631   2.403       .  S
Zr630       O633   2.387       .  S
Zr630       O636   2.398       .  S
O631        H639   0.966       .  S
O634        H638   0.963       .  S
O635        H640   0.962       .  S
C653        H654   1.096       .  S
C653        C659   1.559       .  S
C653        C658   1.599       .  S
C653        C657   1.538       .  S
C655        H656   1.098       .  S
C655        C661   1.551       .  S
C655        C660   1.575       .  S
C655        C662   1.583       .  S
C657        C660   1.397       .  D
C657        C927   1.507       .  S
C658        C661   1.393       .  D
C658        C727   1.564       .  S
C659        C662   1.384       .  D
C659        C797   1.559       .  S
C660        C914   1.538       .  S
C661        C714   1.547       .  S
C662        C807   1.540       .  S
C663        H664   1.092       .  S
C663        C669   1.540       .  S
C663        C668   1.571       .  S
C663        C667   1.555       .  S
C665        H666   1.099       .  S
C665        C671   1.578       .  S
C665        C670   1.567       .  S
C665        C672   1.591       .  S
C667        C670   1.383       .  D
C667        C907   1.518       .  S
C668        C671   1.399       .  D
C668        C784   1.571       .  S
C669        C672   1.398       .  D
C669        C737   1.523       .  S
C670        C894   1.529       .  S
C671        C777   1.529       .  S
C672        C747   1.563       .  S
C673        H674   1.095       .  S
C673        C679   1.570       .  S
C673        C678   1.553       .  S
C673        C677   1.565       .  S
C675        H676   1.097       .  S
C675        C681   1.573       .  S
C675        C680   1.519       .  S
C675        C682   1.567       .  S
C677        C680   1.409       .  D
C677        C867   1.543       .  S
C678        C681   1.400       .  D
C678        C844   1.538       .  S
C679        C682   1.378       .  D
C679        C697   1.530       .  S
C680        C857   1.492       .  S
C681        C837   1.559       .  S
C682        C707   1.548       .  S
C683        H684   1.110       .  S
C683        C689   1.592       .  S
C683        C688   1.581       .  S
C683        C687   1.543       .  S
C685        H686   1.090       .  S
C685        C691   1.558       .  S
C685        C690   1.549       .  S
C685        C692   1.552       .  S
C687        C690   1.382       .  D
C687        C874   1.518       .  S
C688        C691   1.383       .  D
C688        C824   1.523       .  S
C689        C692   1.407       .  D
C689        C757   1.573       .  S
C690        C884   1.483       .  S
C691        C814   1.556       .  S
C692        C767   1.536       .  S
C693        C694   1.432       .  A
C693        C698   1.418       .  A
C693       Br700   1.921       .  S
C694        C695   1.428       .  A
C695        C696   1.409       .  A
C695       Br702   1.930       .  S
C696        C697   1.408       .  A
C696       Br701   1.923       .  S
C697        C698   1.406       .  A
C698       Br699   1.930       .  S
C703        C704   1.404       .  A
C703        C708   1.417       .  A
C703       Br710   1.946       .  S
C704        C705   1.413       .  A
C705        C706   1.423       .  A
C705       Br712   1.927       .  S
C706        C707   1.421       .  A
C706       Br711   1.913       .  S
C707        C708   1.439       .  A
C708       Br709   1.905       .  S
C713        C714   1.420       .  A
C713        C718   1.424       .  A
C713       Br720   1.919       .  S
C714        C715   1.435       .  A
C715        C716   1.413       .  A
C715       Br722   1.899       .  S
C716        C717   1.398       .  A
C716       Br721   1.944       .  S
C717        C718   1.410       .  A
C718       Br719   1.919       .  S
C723        C724   1.417       .  A
C723        C728   1.432       .  A
C723       Br730   1.926       .  S
C724        C725   1.413       .  A
C725        C726   1.433       .  A
C725       Br732   1.931       .  S
C726        C727   1.433       .  A
C726       Br731   1.912       .  S
C727        C728   1.425       .  A
C728       Br729   1.915       .  S
C733        C734   1.421       .  A
C733        C738   1.421       .  A
C733       Br740   1.925       .  S
C734        C735   1.408       .  A
C735        C736   1.412       .  A
C735       Br742   1.938       .  S
C736        C737   1.418       .  A
C736       Br741   1.901       .  S
C737        C738   1.413       .  A
C738       Br739   1.932       .  S
C743        C744   1.419       .  A
C743        C748   1.422       .  A
C743       Br750   1.934       .  S
C744        C745   1.421       .  A
C745        C746   1.416       .  A
C745       Br752   1.929       .  S
C746        C747   1.417       .  A
C746       Br751   1.922       .  S
C747        C748   1.434       .  A
C748       Br749   1.915       .  S
C753        C754   1.418       .  A
C753        C758   1.424       .  A
C753       Br760   1.928       .  S
C754        C755   1.421       .  A
C755        C756   1.438       .  A
C755       Br762   1.939       .  S
C756        C757   1.443       .  A
C756       Br761   1.911       .  S
C757        C758   1.416       .  A
C758       Br759   1.907       .  S
C763        C764   1.398       .  A
C763        C768   1.409       .  A
C763       Br770   1.940       .  S
C764        C765   1.411       .  A
C765        C766   1.420       .  A
C765       Br772   1.905       .  S
C766        C767   1.417       .  A
C766       Br771   1.928       .  S
C767        C768   1.442       .  A
C768       Br769   1.927       .  S
C773        C774   1.418       .  A
C773        C778   1.421       .  A
C773       Br780   1.920       .  S
C774        C775   1.406       .  A
C775        C776   1.413       .  A
C775       Br782   1.939       .  S
C776        C777   1.422       .  A
C776       Br781   1.902       .  S
C777        C778   1.416       .  A
C778       Br779   1.936       .  S
C783        C784   1.422       .  A
C783        C788   1.415       .  A
C783       Br790   1.923       .  S
C784        C785   1.421       .  A
C785        C786   1.425       .  A
C785       Br792   1.914       .  S
C786        C787   1.419       .  A
C786       Br791   1.923       .  S
C787        C788   1.424       .  A
C788       Br789   1.943       .  S
C793        C794   1.404       .  A
C793        C798   1.418       .  A
C793       Br800   1.950       .  S
C794        C795   1.414       .  A
C795        C796   1.422       .  A
C795       Br802   1.930       .  S
C796        C797   1.421       .  A
C796       Br801   1.914       .  S
C797        C798   1.437       .  A
C798       Br799   1.895       .  S
C803        C804   1.437       .  A
C803        C808   1.406       .  A
C803       Br810   1.937       .  S
C804        C805   1.422       .  A
C805        C806   1.426       .  A
C805       Br812   1.923       .  S
C806        C807   1.417       .  A
C806       Br811   1.922       .  S
C807        C808   1.399       .  A
C808       Br809   1.930       .  S
C813        C814   1.413       .  A
C813        C818   1.425       .  A
C813       Br820   1.929       .  S
C814        C815   1.423       .  A
C815        C816   1.415       .  A
C815       Br822   1.918       .  S
C816        C817   1.420       .  A
C816       Br821   1.930       .  S
C817        C818   1.428       .  A
C818       Br819   1.923       .  S
C823        C824   1.424       .  A
C823        C828   1.405       .  A
C823       Br830   1.896       .  S
C824        C825   1.417       .  A
C825        C826   1.420       .  A
C825       Br832   1.920       .  S
C826        C827   1.413       .  A
C826       Br831   1.921       .  S
C827        C828   1.395       .  A
C828       Br829   1.932       .  S
C833        C834   1.416       .  A
C833        C838   1.420       .  A
C833       Br840   1.932       .  S
C834        C835   1.421       .  A
C835        C836   1.426       .  A
C835       Br842   1.940       .  S
C836        C837   1.434       .  A
C836       Br841   1.910       .  S
C837        C838   1.417       .  A
C838       Br839   1.910       .  S
C843        C844   1.422       .  A
C843        C848   1.421       .  A
C843       Br850   1.924       .  S
C844        C845   1.440       .  A
C845        C846   1.409       .  A
C845       Br852   1.923       .  S
C846        C847   1.400       .  A
C846       Br851   1.945       .  S
C847        C848   1.410       .  A
C848       Br849   1.922       .  S
C853        C854   1.400       .  A
C853        C858   1.393       .  A
C853       Br860   1.933       .  S
C854        C855   1.409       .  A
C855        C856   1.384       .  A
C855       Br862   1.917       .  S
C856        C857   1.385       .  A
C856       Br861   1.919       .  S
C857        C858   1.426       .  A
C858       Br859   1.926       .  S
C863        C864   1.392       .  A
C863        C868   1.410       .  A
C863       Br870   1.942       .  S
C864        C865   1.401       .  A
C865        C866   1.406       .  A
C865       Br872   1.930       .  S
C866        C867   1.422       .  A
C866       Br871   1.896       .  S
C867        C868   1.436       .  A
C868       Br869   1.889       .  S
C873        C874   1.426       .  A
C873        C878   1.399       .  A
C873       Br880   1.898       .  S
C874        C875   1.424       .  A
C875        C876   1.391       .  A
C875       Br882   1.918       .  S
C876        C877   1.381       .  A
C876       Br881   1.919       .  S
C877        C878   1.391       .  A
C878       Br879   1.939       .  S
C883        C884   1.422       .  A
C883        C888   1.393       .  A
C883       Br890   1.906       .  S
C884        C885   1.416       .  A
C885        C886   1.392       .  A
C885       Br892   1.904       .  S
C886        C887   1.395       .  A
C886       Br891   1.930       .  S
C887        C888   1.394       .  A
C888       Br889   1.935       .  S
C893        C894   1.426       .  A
C893        C898   1.411       .  A
C893       Br900   1.911       .  S
C894        C895   1.428       .  A
C895        C896   1.402       .  A
C895       Br902   1.878       .  S
C896        C897   1.393       .  A
C896       Br901   1.950       .  S
C897        C898   1.405       .  A
C898       Br899   1.926       .  S
C903        C904   1.425       .  A
C903        C908   1.414       .  A
C903       Br910   1.935       .  S
C904        C905   1.400       .  A
C905        C906   1.375       .  A
C905       Br912   1.922       .  S
C906        C907   1.403       .  A
C906       Br911   1.896       .  S
C907        C908   1.430       .  A
C908       Br909   1.919       .  S
C913        C914   1.432       .  A
C913        C918   1.397       .  A
C913       Br920   1.892       .  S
C914        C915   1.436       .  A
C915        C916   1.420       .  A
C915       Br922   1.921       .  S
C916        C917   1.407       .  A
C916       Br921   1.928       .  S
C917        C918   1.391       .  A
C918       Br919   1.946       .  S
C923        C924   1.387       .  A
C923        C928   1.388       .  A
C923       Br930   1.945       .  S
C924        C925   1.387       .  A
C925        C926   1.399       .  A
C925       Br932   1.938       .  S
C926        C927   1.433       .  A
C926       Br931   1.911       .  S
C927        C928   1.437       .  A
C928       Br929   1.922       .  S
O933       Zr945   2.408   1_554  S
O933        C935   1.282       .  A
O934       Zr971   2.384       .  S
O934        C935   1.279       .  A
C935       C1390   1.442       .  S
O936      Zr1414   2.439       .  S
O936        C938   1.289       .  A
O937       Zr972   2.388       .  S
O937        C938   1.276       .  A
C938       C1363   1.470       .  S
O939       Zr948   2.439   1_554  S
O939        C941   1.287       .  A
O940       Zr971   2.382       .  S
O940        C941   1.276       .  A
C941       C1370   1.471       .  S
O942      Zr1411   2.453       .  S
O942        C944   1.291       .  A
O943       Zr972   2.403       .  S
O943        C944   1.279       .  A
C944       C1383   1.483       .  S
Zr945      O1408   2.466       .  S
Zr945       O946   2.434       .  S
Zr945      O1413   2.436       .  S
Zr945       O951   2.381   1_556  S
Zr945      O1418   2.345       .  S
Zr945      O1441   2.346       .  S
Zr945       O977   2.379   1_556  S
O946        H989   0.990       .  S
O947      Zr1411   2.433       .  S
O947       H1454   0.990       .  S
O947       H1458   0.990       .  S
Zr948      O1402   2.422       .  S
Zr948       O949   2.433       .  S
Zr948      O1416   2.434       .  S
Zr948      O1418   2.356       .  S
Zr948       O951   2.361   1_556  S
Zr948       O976   2.359   1_556  S
Zr948      O1444   2.368       .  S
O949       H1456   0.989       .  S
O949        H993   0.989   1_556  S
O950      Zr1414   2.437       .  S
O950       H1449   0.990       .  S
O951       Zr971   2.372       .  S
O952      Zr1411   2.343       .  S
O952      Zr1414   2.372       .  S
O952       Zr972   2.365       .  S
O952        H979   0.966       .  S
O953       Zr965   2.444       .  S
O953        C955   1.289       .  A
O954       Zr972   2.352       .  S
O954        C955   1.269       .  A
C955       C1320   1.467       .  S
O956      Zr1434   2.367       .  S
O956        C958   1.274       .  A
O957       Zr971   2.411       .  S
O957        C958   1.282       .  A
C958       C1353   1.437       .  S
O959       Zr968   2.367       .  S
O959        C961   1.271       .  A
O960       Zr972   2.393       .  S
O960        C961   1.282       .  A
C961       C1343   1.430       .  S
O962      Zr1431   2.469   1_554  S
O962        C964   1.295       .  A
O963       Zr971   2.385       .  S
O963        C964   1.277       .  A
C964       C1330   1.478       .  S
Zr965      O1428   2.468       .  S
Zr965      O1432   2.439       .  S
Zr965       O967   2.434       .  S
Zr965       O973   2.373       .  S
Zr965      O1440   2.363       .  S
Zr965      O1443   2.364       .  S
Zr965       O975   2.376       .  S
O966      Zr1431   2.438       .  S
O966       H1452   0.990       .  S
O966       H1457   0.990   1_556  S
O967        H987   0.990       .  S
Zr968      O1422   2.376       .  S
Zr968       O969   2.436       .  S
Zr968      O1436   2.436       .  S
Zr968      O1440   2.360       .  S
Zr968       O973   2.366       .  S
Zr968       O978   2.371       .  S
Zr968      O1442   2.351       .  S
O969       H1451   0.990       .  S
O970      Zr1434   2.442       .  S
O970       H1450   0.990       .  S
O970       H1460   0.990       .  S
Zr971       O974   2.366       .  S
Zr971       O976   2.364       .  S
Zr971       O977   2.380       .  S
Zr972       O973   2.382       .  S
Zr972       O975   2.368       .  S
Zr972       O978   2.365       .  S
O973        H981   0.966       .  S
O974      Zr1431   2.362   1_554  S
O974      Zr1434   2.367       .  S
O975      Zr1411   2.352       .  S
O976      Zr1434   2.361       .  S
O976        H980   0.966       .  S
O977      Zr1431   2.365   1_554  S
O977        H982   0.964       .  S
O978      Zr1414   2.360       .  S
H983       O1416   0.990   1_554  S
H984       O1436   0.989       .  S
H985       O1435   0.990       .  S
H986       O1432   0.990       .  S
H988       O1413   0.990       .  S
H990       O1415   0.990       .  S
H991       O1432   0.990       .  S
H992       O1413   0.990       .  S
H994       O1436   0.990       .  S
O995      Zr1007   2.441   1_554  S
O995        C997   1.289       .  A
O996      Zr1033   2.461       .  S
O996        C997   1.293       .  A
C997       C1313   1.491       .  S
O998      Zr1476   2.404       .  S
O998       C1000   1.277       .  A
O999      Zr1034   2.486       .  S
O999       C1000   1.302       .  A
C1000      C1293   1.485       .  S
O1001     Zr1010   2.465       .  S
O1001      C1003   1.291       .  A
O1002     Zr1033   2.474       .  S
O1002      C1003   1.296       .  A
C1003      C1283   1.527       .  S
O1004     Zr1473   2.504       .  S
O1004      C1006   1.300       .  A
O1005     Zr1034   2.442       .  S
O1005      C1006   1.290       .  A
C1006      C1300   1.530       .  S
Zr1007     O1470   2.491       .  S
Zr1007     O1008   2.434       .  S
Zr1007     O1475   2.437       .  S
Zr1007     O1013   2.393   1_556  S
Zr1007     O1480   2.371       .  S
Zr1007     O1503   2.354       .  S
Zr1007     O1039   2.384   1_556  S
O1008      H1051   0.990       .  S
O1009     Zr1473   2.435       .  S
O1009      H1516   0.990       .  S
O1009      H1520   0.990       .  S
Zr1010     O1464   2.412   1_554  S
Zr1010     O1011   2.436   1_554  S
Zr1010     O1478   2.427   1_554  S
Zr1010     O1480   2.388   1_554  S
Zr1010     O1013   2.370       .  S
Zr1010     O1038   2.350       .  S
Zr1010     O1506   2.376   1_554  S
O1011      H1518   0.990       .  S
O1011      H1055   0.990   1_556  S
O1012     Zr1476   2.428       .  S
O1012      H1511   0.991       .  S
O1013     Zr1033   2.407       .  S
O1014     Zr1473   2.369       .  S
O1014     Zr1476   2.391       .  S
O1014     Zr1034   2.402       .  S
O1014      H1041   0.972       .  S
O1015     Zr1027   2.417       .  S
O1015      C1017   1.280       .  A
O1016      C1017   1.306       .  A
C1017      C1270   1.525       .  S
O1018     Zr1496   2.421   1_554  S
O1018      C1020   1.280       .  A
O1019      C1020   1.298       .  A
C1020      C1253   1.526       .  S
O1021     Zr1030   2.444       .  S
O1021      C1023   1.286       .  A
O1022      C1023   1.298       .  A
C1023      C1240   1.499       .  S
O1024     Zr1493   2.453   1_554  S
O1024      C1026   1.287       .  A
O1025      C1026   1.294       .  A
C1026      C1260   1.499       .  S
Zr1027     O1490   2.450       .  S
Zr1027     O1494   2.438       .  S
Zr1027     O1495   2.430       .  S
Zr1027     O1035   2.381       .  S
Zr1027     O1502   2.366       .  S
O1028     Zr1493   2.439       .  S
O1028      H1514   0.989       .  S
O1028      H1519   0.990   1_556  S
O1029     Zr1493   2.433   1_554  S
O1029      H1515   0.990   1_554  S
Zr1030     O1484   2.408       .  S
Zr1030     O1031   2.438       .  S
Zr1030     O1498   2.436       .  S
Zr1030     O1502   2.379       .  S
Zr1030     O1035   2.376       .  S
O1031      H1513   0.990       .  S
O1032     Zr1496   2.437   1_554  S
O1032      H1512   0.990   1_554  S
O1032      H1522   0.990   1_554  S
Zr1033     O1038   2.390       .  S
Zr1033     O1039   2.398       .  S
Zr1034     O1037   2.377       .  S
Zr1034     O1040   2.388       .  S
O1035      H1043   0.963       .  S
O1036     Zr1493   2.369   1_554  S
O1036     Zr1496   2.390   1_554  S
O1037     Zr1473   2.355       .  S
O1038      H1042   0.964       .  S
O1039      H1044   0.967       .  S
O1040     Zr1476   2.383       .  S
H1045      O1478   0.990   1_554  S
H1046      O1498   0.990       .  S
H1047      O1497   0.990       .  S
H1048      O1494   0.990       .  S
H1049      O1495   0.990       .  S
H1050      O1475   0.990   1_554  S
H1052      O1477   0.990       .  S
H1053      O1494   0.990       .  S
H1054      O1475   0.990   1_554  S
H1056      O1498   0.990       .  S
O1057     Zr1069   2.456   1_554  S
O1057      C1059   1.292       .  A
O1058     Zr1095   2.471   1_655  S
O1058      C1059   1.296       .  A
C1059      C1230   1.497       .  S
O1060     Zr1538   2.459       .  S
O1060      C1062   1.291       .  A
O1061     Zr1096   2.451   1_655  S
O1061      C1062   1.290       .  A
C1062      C1210   1.518       .  S
O1063     Zr1072   2.481   1_554  S
O1063      C1065   1.293       .  A
O1064     Zr1095   2.462   1_655  S
O1064      C1065   1.295       .  A
C1065      C1200   1.516       .  S
O1066     Zr1535   2.491       .  S
O1066      C1068   1.297       .  A
O1067     Zr1096   2.483   1_655  S
O1067      C1068   1.297       .  A
C1068      C1220   1.545       .  S
Zr1069     O1532   2.488       .  S
Zr1069     O1070   2.437       .  S
Zr1069     O1537   2.435       .  S
Zr1069     O1075   2.400   1_556  S
Zr1069     O1542   2.382       .  S
Zr1069     O1565   2.360   1_655  S
Zr1069     O1101   2.373   1_656  S
O1070      H1113   0.990       .  S
O1071     Zr1535   2.436       .  S
O1071      H1578   0.990       .  S
O1071      H1582   0.990       .  S
Zr1072     O1526   2.465       .  S
Zr1072     O1073   2.434       .  S
Zr1072     O1540   2.432   1_556  S
Zr1072     O1542   2.384       .  S
Zr1072     O1075   2.371   1_556  S
Zr1072     O1100   2.381   1_656  S
Zr1072     O1568   2.381   1_655  S
O1073      H1580   0.990       .  S
O1073      H1117   0.990   1_556  S
O1074     Zr1538   2.428       .  S
O1074      H1573   0.989       .  S
O1075     Zr1095   2.408   1_655  S
O1076     Zr1535   2.380       .  S
O1076     Zr1538   2.383       .  S
O1076     Zr1096   2.395   1_655  S
O1076      H1103   0.969       .  S
O1077     Zr1089   2.468       .  S
O1077      C1079   1.291       .  A
O1078     Zr1096   2.447       .  S
O1078      C1079   1.292       .  A
C1079      C1170   1.504       .  S
O1080     Zr1558   2.478       .  S
O1080      C1082   1.295       .  A
O1081     Zr1095   2.503       .  S
O1081      C1082   1.302       .  A
C1082      C1190   1.530       .  S
O1083     Zr1092   2.469       .  S
O1083      C1085   1.293       .  A
O1084     Zr1096   2.447       .  S
O1084      C1085   1.291       .  A
C1085      C1183   1.494       .  S
O1086     Zr1555   2.468   1_554  S
O1086      C1088   1.292       .  A
O1087     Zr1095   2.434       .  S
O1087      C1088   1.288       .  A
C1088      C1160   1.509       .  S
Zr1089     O1552   2.479       .  S
Zr1089     O1090   2.431       .  S
Zr1089     O1557   2.430       .  S
Zr1089     O1097   2.374       .  S
Zr1089     O1564   2.378       .  S
Zr1089     O1567   2.368       .  S
Zr1089     O1099   2.377       .  S
O1090      H1110   0.990       .  S
O1090      H1115   0.990       .  S
O1091     Zr1555   2.428       .  S
O1091      H1577   0.990       .  S
Zr1092     O1546   2.493       .  S
Zr1092     O1093   2.436       .  S
Zr1092     O1560   2.439       .  S
Zr1092     O1564   2.380       .  S
Zr1092     O1097   2.391       .  S
Zr1092     O1102   2.384       .  S
Zr1092     O1566   2.370       .  S
O1093      H1575   0.990       .  S
O1094     Zr1558   2.434       .  S
O1094      H1574   0.990   1_554  S
O1094      H1584   0.990   1_554  S
Zr1095     O1098   2.398       .  S
Zr1095     O1100   2.389       .  S
Zr1095     O1101   2.409       .  S
Zr1096     O1097   2.408       .  S
Zr1096     O1099   2.380       .  S
Zr1096     O1102   2.403       .  S
O1097      H1105   0.965       .  S
O1098     Zr1555   2.382   1_554  S
O1098     Zr1558   2.381       .  S
O1099     Zr1535   2.361   1_455  S
O1100     Zr1558   2.367       .  S
O1100      H1104   0.963       .  S
O1101     Zr1555   2.369   1_554  S
O1101      H1106   0.962       .  S
O1102     Zr1538   2.377   1_455  S
H1107      O1540   0.989       .  S
H1108      O1560   0.990       .  S
H1109      O1559   0.990       .  S
H1111      O1557   0.990       .  S
H1112      O1537   0.990   1_554  S
H1114      O1539   0.990       .  S
H1116      O1537   0.990       .  S
H1118      O1560   0.990       .  S
C1119      H1120   1.100       .  S
C1119      C1125   1.567       .  S
C1119      C1124   1.599       .  S
C1119      C1123   1.540       .  S
C1121      H1122   1.099       .  S
C1121      C1127   1.550       .  S
C1121      C1126   1.574       .  S
C1121      C1128   1.579       .  S
C1123      C1126   1.398       .  D
C1123      C1393   1.513       .  S
C1124      C1127   1.391       .  D
C1124      C1193   1.564       .  S
C1125      C1128   1.387       .  D
C1125      C1263   1.557       .  S
C1126      C1380   1.537       .  S
C1127      C1180   1.545       .  S
C1128      C1273   1.545       .  S
C1129      H1130   1.096       .  S
C1129      C1135   1.551       .  S
C1129      C1134   1.580       .  S
C1129      C1133   1.554       .  S
C1131      H1132   1.097       .  S
C1131      C1137   1.567       .  S
C1131      C1136   1.562       .  S
C1131      C1138   1.590       .  S
C1133      C1136   1.384       .  D
C1133      C1373   1.521       .  S
C1134      C1137   1.397       .  D
C1134      C1250   1.567       .  S
C1135      C1138   1.396       .  D
C1135      C1203   1.526       .  S
C1136      C1360   1.524       .  S
C1137      C1243   1.526       .  S
C1138      C1213   1.562       .  S
C1139      H1140   1.094       .  S
C1139      C1145   1.566       .  S
C1139      C1144   1.551       .  S
C1139      C1143   1.563       .  S
C1141      H1142   1.094       .  S
C1141      C1147   1.570       .  S
C1141      C1146   1.520       .  S
C1141      C1148   1.566       .  S
C1143      C1146   1.410       .  D
C1143      C1333   1.541       .  S
C1144      C1147   1.402       .  D
C1144      C1310   1.535       .  S
C1145      C1148   1.374       .  D
C1145      C1163   1.526       .  S
C1146      C1323   1.497       .  S
C1147      C1303   1.559       .  S
C1148      C1173   1.543       .  S
C1149      H1150   1.110       .  S
C1149      C1155   1.592       .  S
C1149      C1154   1.580       .  S
C1149      C1153   1.546       .  S
C1151      H1152   1.091       .  S
C1151      C1157   1.559       .  S
C1151      C1156   1.550       .  S
C1151      C1158   1.557       .  S
C1153      C1156   1.379       .  D
C1153      C1340   1.513       .  S
C1154      C1157   1.384       .  D
C1154      C1290   1.520       .  S
C1155      C1158   1.409       .  D
C1155      C1223   1.576       .  S
C1156      C1350   1.489       .  S
C1157      C1280   1.556       .  S
C1158      C1233   1.541       .  S
C1159      C1160   1.428       .  A
C1159      C1164   1.415       .  A
C1159     Br1166   1.924       .  S
C1160      C1161   1.426       .  A
C1161      C1162   1.405       .  A
C1161     Br1168   1.933       .  S
C1162      C1163   1.410       .  A
C1162     Br1167   1.920       .  S
C1163      C1164   1.407       .  A
C1164     Br1165   1.929       .  S
C1169      C1170   1.404       .  A
C1169      C1174   1.417       .  A
C1169     Br1176   1.944       .  S
C1170      C1171   1.415       .  A
C1171      C1172   1.422       .  A
C1171     Br1178   1.924       .  S
C1172      C1173   1.418       .  A
C1172     Br1177   1.919       .  S
C1173      C1174   1.438       .  A
C1174     Br1175   1.909       .  S
C1179      C1180   1.420       .  A
C1179      C1184   1.423       .  A
C1179     Br1186   1.920       .  S
C1180      C1181   1.434       .  A
C1181      C1182   1.412       .  A
C1181     Br1188   1.899       .  S
C1182      C1183   1.396       .  A
C1182     Br1187   1.944       .  S
C1183      C1184   1.409       .  A
C1184     Br1185   1.918       .  S
C1189      C1190   1.416       .  A
C1189      C1194   1.430       .  A
C1189     Br1196   1.924       .  S
C1190      C1191   1.410       .  A
C1191      C1192   1.432       .  A
C1191     Br1198   1.933       .  S
C1192      C1193   1.435       .  A
C1192     Br1197   1.911       .  S
C1193      C1194   1.425       .  A
C1194     Br1195   1.915       .  S
C1199      C1200   1.424       .  A
C1199      C1204   1.421       .  A
C1199     Br1206   1.923       .  S
C1200      C1201   1.413       .  A
C1201      C1202   1.416       .  A
C1201     Br1208   1.936       .  S
C1202      C1203   1.419       .  A
C1202     Br1207   1.908       .  S
C1203      C1204   1.411       .  A
C1204     Br1205   1.935       .  S
C1209      C1210   1.419       .  A
C1209      C1214   1.418       .  A
C1209     Br1216   1.931       .  S
C1210      C1211   1.418       .  A
C1211      C1212   1.413       .  A
C1211     Br1218   1.931       .  S
C1212      C1213   1.419       .  A
C1212     Br1217   1.918       .  S
C1213      C1214   1.434       .  A
C1214     Br1215   1.918       .  S
C1219      C1220   1.419       .  A
C1219      C1224   1.426       .  A
C1219     Br1226   1.930       .  S
C1220      C1221   1.422       .  A
C1221      C1222   1.439       .  A
C1221     Br1228   1.937       .  S
C1222      C1223   1.441       .  A
C1222     Br1227   1.912       .  S
C1223      C1224   1.419       .  A
C1224     Br1225   1.906       .  S
C1229      C1230   1.399       .  A
C1229      C1234   1.410       .  A
C1229     Br1236   1.943       .  S
C1230      C1231   1.413       .  A
C1231      C1232   1.424       .  A
C1231     Br1238   1.910       .  S
C1232      C1233   1.419       .  A
C1232     Br1237   1.927       .  S
C1233      C1234   1.442       .  A
C1234     Br1235   1.924       .  S
C1239      C1240   1.419       .  A
C1239      C1244   1.421       .  A
C1239     Br1246   1.919       .  S
C1240      C1241   1.400       .  A
C1241      C1242   1.408       .  A
C1241     Br1248   1.941       .  S
C1242      C1243   1.423       .  A
C1242     Br1247   1.896       .  S
C1243      C1244   1.414       .  A
C1244     Br1245   1.938       .  S
C1249      C1250   1.423       .  A
C1249      C1254   1.416       .  A
C1249     Br1256   1.920       .  S
C1250      C1251   1.419       .  A
C1251      C1252   1.419       .  A
C1251     Br1258   1.915       .  S
C1252      C1253   1.418       .  A
C1252     Br1257   1.925       .  S
C1253      C1254   1.431       .  A
C1254     Br1255   1.945       .  S
C1259      C1260   1.397       .  A
C1259      C1264   1.411       .  A
C1259     Br1266   1.949       .  S
C1260      C1261   1.414       .  A
C1261      C1262   1.425       .  A
C1261     Br1268   1.932       .  S
C1262      C1263   1.423       .  A
C1262     Br1267   1.915       .  S
C1263      C1264   1.435       .  A
C1264     Br1265   1.896       .  S
C1269      C1270   1.434       .  A
C1269      C1274   1.409       .  A
C1269     Br1276   1.932       .  S
C1270      C1271   1.423       .  A
C1271      C1272   1.429       .  A
C1271     Br1278   1.918       .  S
C1272      C1273   1.416       .  A
C1272     Br1277   1.921       .  S
C1273      C1274   1.402       .  A
C1274     Br1275   1.929       .  S
C1279      C1280   1.413       .  A
C1279      C1284   1.423       .  A
C1279     Br1286   1.931       .  S
C1280      C1281   1.425       .  A
C1281      C1282   1.415       .  A
C1281     Br1288   1.916       .  S
C1282      C1283   1.418       .  A
C1282     Br1287   1.932       .  S
C1283      C1284   1.429       .  A
C1284     Br1285   1.923       .  S
C1289      C1290   1.422       .  A
C1289      C1294   1.400       .  A
C1289     Br1296   1.892       .  S
C1290      C1291   1.418       .  A
C1291      C1292   1.421       .  A
C1291     Br1298   1.918       .  S
C1292      C1293   1.413       .  A
C1292     Br1297   1.919       .  S
C1293      C1294   1.391       .  A
C1294     Br1295   1.929       .  S
C1299      C1300   1.415       .  A
C1299      C1304   1.425       .  A
C1299     Br1306   1.931       .  S
C1300      C1301   1.420       .  A
C1301      C1302   1.427       .  A
C1301     Br1308   1.938       .  S
C1302      C1303   1.431       .  A
C1302     Br1307   1.909       .  S
C1303      C1304   1.420       .  A
C1304     Br1305   1.911       .  S
C1309      C1310   1.419       .  A
C1309      C1314   1.421       .  A
C1309     Br1316   1.925       .  S
C1310      C1311   1.439       .  A
C1311      C1312   1.408       .  A
C1311     Br1318   1.925       .  S
C1312      C1313   1.403       .  A
C1312     Br1317   1.946       .  S
C1313      C1314   1.411       .  A
C1314     Br1315   1.922       .  S
C1319      C1320   1.403       .  A
C1319      C1324   1.395       .  A
C1319     Br1326   1.938       .  S
C1320      C1321   1.414       .  A
C1321      C1322   1.386       .  A
C1321     Br1328   1.922       .  S
C1322      C1323   1.383       .  A
C1322     Br1327   1.918       .  S
C1323      C1324   1.429       .  A
C1324     Br1325   1.931       .  S
C1329      C1330   1.392       .  A
C1329      C1334   1.411       .  A
C1329     Br1336   1.942       .  S
C1330      C1331   1.400       .  A
C1331      C1332   1.403       .  A
C1331     Br1338   1.928       .  S
C1332      C1333   1.421       .  A
C1332     Br1337   1.895       .  S
C1333      C1334   1.436       .  A
C1334     Br1335   1.890       .  S
C1339      C1340   1.423       .  A
C1339      C1344   1.394       .  A
C1339     Br1346   1.896       .  S
C1340      C1341   1.426       .  A
C1341      C1342   1.391       .  A
C1341     Br1348   1.920       .  S
C1342      C1343   1.381       .  A
C1342     Br1347   1.924       .  S
C1343      C1344   1.388       .  A
C1344     Br1345   1.939       .  S
C1349      C1350   1.424       .  A
C1349      C1354   1.396       .  A
C1349     Br1356   1.898       .  S
C1350      C1351   1.416       .  A
C1351      C1352   1.391       .  A
C1351     Br1358   1.901       .  S
C1352      C1353   1.394       .  A
C1352     Br1357   1.934       .  S
C1353      C1354   1.395       .  A
C1354     Br1355   1.939       .  S
C1359      C1360   1.427       .  A
C1359      C1364   1.410       .  A
C1359     Br1366   1.914       .  S
C1360      C1361   1.428       .  A
C1361      C1362   1.397       .  A
C1361     Br1368   1.883       .  S
C1362      C1363   1.390       .  A
C1362     Br1367   1.948       .  S
C1363      C1364   1.405       .  A
C1364     Br1365   1.929       .  S
C1369      C1370   1.416       .  A
C1369      C1374   1.410       .  A
C1369     Br1376   1.935       .  S
C1370      C1371   1.398       .  A
C1371      C1372   1.381       .  A
C1371     Br1378   1.926       .  S
C1372      C1373   1.410       .  A
C1372     Br1377   1.895       .  S
C1373      C1374   1.430       .  A
C1374     Br1375   1.917       .  S
C1379      C1380   1.431       .  A
C1379      C1384   1.398       .  A
C1379     Br1386   1.893       .  S
C1380      C1381   1.434       .  A
C1381      C1382   1.420       .  A
C1381     Br1388   1.922       .  S
C1382      C1383   1.409       .  A
C1382     Br1387   1.925       .  S
C1383      C1384   1.391       .  A
C1384     Br1385   1.944       .  S
C1389      C1390   1.391       .  A
C1389      C1394   1.394       .  A
C1389     Br1396   1.949       .  S
C1390      C1391   1.392       .  A
C1391      C1392   1.403       .  A
C1391     Br1398   1.936       .  S
C1392      C1393   1.431       .  A
C1392     Br1397   1.912       .  S
C1393      C1394   1.436       .  A
C1394     Br1395   1.918       .  S
O1399     Zr1411   2.401       .  S
O1399      C1401   1.280       .  A
O1400     Zr1437   2.377       .  S
O1400      C1401   1.277       .  A
C1401      C1856   1.436       .  S
O1402      C1404   1.286       .  A
O1403     Zr1438   2.390       .  S
O1403      C1404   1.277       .  A
C1404      C1829   1.466       .  S
O1405     Zr1414   2.460       .  S
O1405      C1407   1.292       .  A
O1406     Zr1437   2.371       .  S
O1406      C1407   1.274       .  A
C1407      C1836   1.472       .  S
O1408      C1410   1.295       .  A
O1409     Zr1438   2.369       .  S
O1409      C1410   1.273       .  A
C1410      C1849   1.469       .  S
Zr1411     O1412   2.435       .  S
Zr1411     O1417   2.378       .  S
Zr1411     O1443   2.378       .  S
O1412      H1455   0.990       .  S
Zr1414     O1415   2.433       .  S
Zr1414     O1417   2.370       .  S
Zr1414     O1442   2.352       .  S
O1415      H1459   0.990       .  S
O1417     Zr1437   2.375       .  S
O1418     Zr1438   2.362       .  S
O1418      H1445   0.965       .  S
O1419     Zr1431   2.448       .  S
O1419      C1421   1.290       .  A
O1420     Zr1438   2.351       .  S
O1420      C1421   1.269       .  A
C1421      C1786   1.462       .  S
O1422      C1424   1.276       .  A
O1423     Zr1437   2.405       .  S
O1423      C1424   1.280       .  A
C1424      C1819   1.440       .  S
O1425     Zr1434   2.379   1_556  S
O1425      C1427   1.273       .  A
O1426     Zr1438   2.397       .  S
O1426      C1427   1.282       .  A
C1427      C1809   1.439       .  S
O1428      C1430   1.294       .  A
O1429     Zr1437   2.394       .  S
O1429      C1430   1.278       .  A
C1430      C1796   1.486       .  S
Zr1431     O1433   2.434   1_556  S
Zr1431     O1439   2.382       .  S
Zr1431     O1441   2.368       .  S
O1433      H1453   0.990   1_554  S
Zr1434     O1435   2.435       .  S
Zr1434     O1439   2.364   1_554  S
Zr1434     O1444   2.365   1_554  S
Zr1437     O1440   2.368       .  S
Zr1437     O1442   2.362       .  S
Zr1437     O1443   2.374       .  S
Zr1438     O1439   2.369       .  S
Zr1438     O1441   2.368       .  S
Zr1438     O1444   2.355       .  S
O1439      H1447   0.966       .  S
O1442      H1446   0.968       .  S
O1443      H1448   0.965       .  S
O1461     Zr1473   2.455       .  S
O1461      C1463   1.293       .  A
O1462     Zr1499   2.453       .  S
O1462      C1463   1.292       .  A
C1463      C1779   1.491       .  S
O1464      C1466   1.280       .  A
O1465     Zr1500   2.503       .  S
O1465      C1466   1.305       .  A
C1466      C1759   1.496       .  S
O1467     Zr1476   2.473       .  S
O1467      C1469   1.292       .  A
O1468     Zr1499   2.466       .  S
O1468      C1469   1.294       .  A
C1469      C1749   1.525       .  S
O1470      C1472   1.297       .  A
O1471     Zr1500   2.438       .  S
O1471      C1472   1.289       .  A
C1472      C1766   1.524       .  S
Zr1473     O1474   2.435       .  S
Zr1473     O1479   2.397       .  S
Zr1473     O1505   2.385       .  S
O1474      H1517   0.990       .  S
Zr1476     O1477   2.437       .  S
Zr1476     O1479   2.366       .  S
Zr1476     O1504   2.356       .  S
O1477      H1521   0.990       .  S
O1479     Zr1499   2.409       .  S
O1480     Zr1500   2.402       .  S
O1480      H1507   0.972       .  S
O1481     Zr1493   2.426       .  S
O1481      C1483   1.283       .  A
O1482      C1483   1.304       .  A
C1483      C1736   1.519       .  S
O1484      C1486   1.277       .  A
O1485      C1486   1.295       .  A
C1486      C1719   1.520       .  S
O1487     Zr1496   2.460       .  S
O1487      C1489   1.289       .  A
O1488      C1489   1.297       .  A
C1489      C1706   1.507       .  S
O1490      C1492   1.288       .  A
O1491      C1492   1.293       .  A
C1492      C1726   1.501       .  S
Zr1493     O1501   2.385       .  S
Zr1496     O1497   2.436       .  S
Zr1496     O1501   2.374       .  S
Zr1499     O1504   2.390       .  S
Zr1499     O1505   2.398       .  S
Zr1500     O1503   2.388       .  S
Zr1500     O1506   2.376       .  S
O1501      H1509   0.965       .  S
O1504      H1508   0.965       .  S
O1505      H1510   0.966       .  S
O1523     Zr1535   2.455       .  S
O1523      C1525   1.292       .  A
O1524     Zr1561   2.471   1_655  S
O1524      C1525   1.296       .  A
C1525      C1696   1.498       .  S
O1526      C1528   1.292       .  A
O1527     Zr1562   2.449   1_655  S
O1527      C1528   1.290       .  A
C1528      C1676   1.520       .  S
O1529     Zr1538   2.474       .  S
O1529      C1531   1.291       .  A
O1530     Zr1561   2.459   1_655  S
O1530      C1531   1.294       .  A
C1531      C1666   1.512       .  S
O1532      C1534   1.297       .  A
O1533     Zr1562   2.488   1_655  S
O1533      C1534   1.299       .  A
C1534      C1686   1.544       .  S
Zr1535     O1536   2.438       .  S
Zr1535     O1541   2.401       .  S
Zr1535     O1567   2.372   1_655  S
O1536      H1579   0.990       .  S
Zr1538     O1539   2.434       .  S
Zr1538     O1541   2.372       .  S
Zr1538     O1566   2.379   1_655  S
O1539      H1583   0.990       .  S
O1541     Zr1561   2.407   1_655  S
O1542     Zr1562   2.395   1_655  S
O1542      H1569   0.969       .  S
O1543     Zr1555   2.459       .  S
O1543      C1545   1.289       .  A
O1544     Zr1562   2.434       .  S
O1544      C1545   1.290       .  A
C1545      C1636   1.497       .  S
O1546      C1548   1.298       .  A
O1547     Zr1561   2.494       .  S
O1547      C1548   1.300       .  A
C1548      C1656   1.533       .  S
O1549     Zr1558   2.454   1_556  S
O1549      C1551   1.290       .  A
O1550     Zr1562   2.460       .  S
O1550      C1551   1.294       .  A
C1551      C1649   1.494       .  S
O1552      C1554   1.295       .  A
O1553     Zr1561   2.432       .  S
O1553      C1554   1.287       .  A
C1554      C1626   1.514       .  S
Zr1555     O1556   2.432   1_556  S
Zr1555     O1563   2.368       .  S
Zr1555     O1565   2.373       .  S
O1556      H1576   0.990   1_554  S
O1556      H1581   0.990       .  S
Zr1558     O1559   2.437       .  S
Zr1558     O1563   2.385   1_554  S
Zr1558     O1568   2.384   1_554  S
Zr1561     O1564   2.397       .  S
Zr1561     O1566   2.390       .  S
Zr1561     O1567   2.406       .  S
Zr1562     O1563   2.402       .  S
Zr1562     O1565   2.380       .  S
Zr1562     O1568   2.398       .  S
O1563      H1571   0.966       .  S
O1566      H1570   0.963       .  S
O1567      H1572   0.962       .  S
C1585      H1586   1.101       .  S
C1585      C1591   1.571       .  S
C1585      C1590   1.602       .  S
C1585      C1589   1.536       .  S
C1587      H1588   1.098       .  S
C1587      C1593   1.550       .  S
C1587      C1592   1.567       .  S
C1587      C1594   1.576       .  S
C1589      C1592   1.390       .  D
C1589      C1859   1.509       .  S
C1590      C1593   1.391       .  D
C1590      C1659   1.568       .  S
C1591      C1594   1.393       .  D
C1591      C1729   1.563       .  S
C1592      C1846   1.523       .  S
C1593      C1646   1.542       .  S
C1594      C1739   1.545       .  S
C1595      H1596   1.098       .  S
C1595      C1601   1.549       .  S
C1595      C1600   1.579       .  S
C1595      C1599   1.552       .  S
C1597      H1598   1.100       .  S
C1597      C1603   1.568       .  S
C1597      C1602   1.568       .  S
C1597      C1604   1.591       .  S
C1599      C1602   1.387       .  D
C1599      C1839   1.528       .  S
C1600      C1603   1.396       .  D
C1600      C1716   1.559       .  S
C1601      C1604   1.396       .  D
C1601      C1669   1.525       .  S
C1602      C1826   1.523       .  S
C1603      C1709   1.532       .  S
C1604      C1679   1.565       .  S
C1605      H1606   1.095       .  S
C1605      C1611   1.570       .  S
C1605      C1610   1.558       .  S
C1605      C1609   1.568       .  S
C1607      H1608   1.100       .  S
C1607      C1613   1.575       .  S
C1607      C1612   1.521       .  S
C1607      C1614   1.565       .  S
C1609      C1612   1.406       .  D
C1609      C1799   1.542       .  S
C1610      C1613   1.400       .  D
C1610      C1776   1.542       .  S
C1611      C1614   1.377       .  D
C1611      C1629   1.534       .  S
C1612      C1789   1.496       .  S
C1613      C1769   1.557       .  S
C1614      C1639   1.539       .  S
C1615      H1616   1.110       .  S
C1615      C1621   1.593       .  S
C1615      C1620   1.579       .  S
C1615      C1619   1.547       .  S
C1617      H1618   1.091       .  S
C1617      C1623   1.558       .  S
C1617      C1622   1.549       .  S
C1617      C1624   1.552       .  S
C1619      C1622   1.380       .  D
C1619      C1806   1.517       .  S
C1620      C1623   1.384       .  D
C1620      C1756   1.526       .  S
C1621      C1624   1.411       .  D
C1621      C1689   1.576       .  S
C1622      C1816   1.488       .  S
C1623      C1746   1.551       .  S
C1624      C1699   1.540       .  S
C1625      C1626   1.428       .  A
C1625      C1630   1.417       .  A
C1625     Br1632   1.926       .  S
C1626      C1627   1.427       .  A
C1627      C1628   1.408       .  A
C1627     Br1634   1.932       .  S
C1628      C1629   1.412       .  A
C1628     Br1633   1.923       .  S
C1629      C1630   1.409       .  A
C1630     Br1631   1.928       .  S
C1635      C1636   1.405       .  A
C1635      C1640   1.416       .  A
C1635     Br1642   1.948       .  S
C1636      C1637   1.414       .  A
C1637      C1638   1.418       .  A
C1637     Br1644   1.926       .  S
C1638      C1639   1.416       .  A
C1638     Br1643   1.915       .  S
C1639      C1640   1.438       .  A
C1640     Br1641   1.909       .  S
C1645      C1646   1.419       .  A
C1645      C1650   1.421       .  A
C1645     Br1652   1.918       .  S
C1646      C1647   1.433       .  A
C1647      C1648   1.414       .  A
C1647     Br1654   1.902       .  S
C1648      C1649   1.400       .  A
C1648     Br1653   1.938       .  S
C1649      C1650   1.407       .  A
C1650     Br1651   1.922       .  S
C1655      C1656   1.415       .  A
C1655      C1660   1.430       .  A
C1655     Br1662   1.925       .  S
C1656      C1657   1.413       .  A
C1657      C1658   1.435       .  A
C1657     Br1664   1.932       .  S
C1658      C1659   1.438       .  A
C1658     Br1663   1.914       .  S
C1659      C1660   1.423       .  A
C1660     Br1661   1.911       .  S
C1665      C1666   1.423       .  A
C1665      C1670   1.422       .  A
C1665     Br1672   1.922       .  S
C1666      C1667   1.411       .  A
C1667      C1668   1.414       .  A
C1667     Br1674   1.939       .  S
C1668      C1669   1.419       .  A
C1668     Br1673   1.903       .  S
C1669      C1670   1.410       .  A
C1670     Br1671   1.934       .  S
C1675      C1676   1.421       .  A
C1675      C1680   1.423       .  A
C1675     Br1682   1.933       .  S
C1676      C1677   1.418       .  A
C1677      C1678   1.411       .  A
C1677     Br1684   1.928       .  S
C1678      C1679   1.417       .  A
C1678     Br1683   1.917       .  S
C1679      C1680   1.434       .  A
C1680     Br1681   1.914       .  S
C1685      C1686   1.418       .  A
C1685      C1690   1.428       .  A
C1685     Br1692   1.929       .  S
C1686      C1687   1.418       .  A
C1687      C1688   1.437       .  A
C1687     Br1694   1.934       .  S
C1688      C1689   1.441       .  A
C1688     Br1693   1.908       .  S
C1689      C1690   1.422       .  A
C1690     Br1691   1.909       .  S
C1695      C1696   1.399       .  A
C1695      C1700   1.409       .  A
C1695     Br1702   1.939       .  S
C1696      C1697   1.415       .  A
C1697      C1698   1.424       .  A
C1697     Br1704   1.907       .  S
C1698      C1699   1.416       .  A
C1698     Br1703   1.927       .  S
C1699      C1700   1.441       .  A
C1700     Br1701   1.927       .  S
C1705      C1706   1.419       .  A
C1705      C1710   1.424       .  A
C1705     Br1712   1.918       .  S
C1706      C1707   1.404       .  A
C1707      C1708   1.412       .  A
C1707     Br1714   1.941       .  S
C1708      C1709   1.422       .  A
C1708     Br1713   1.894       .  S
C1709      C1710   1.415       .  A
C1710     Br1711   1.937       .  S
C1715      C1716   1.417       .  A
C1715      C1720   1.413       .  A
C1715     Br1722   1.920       .  S
C1716      C1717   1.416       .  A
C1717      C1718   1.416       .  A
C1717     Br1724   1.914       .  S
C1718      C1719   1.420       .  A
C1718     Br1723   1.929       .  S
C1719      C1720   1.434       .  A
C1720     Br1721   1.945       .  S
C1725      C1726   1.399       .  A
C1725      C1730   1.414       .  A
C1725     Br1732   1.949       .  S
C1726      C1727   1.412       .  A
C1727      C1728   1.422       .  A
C1727     Br1734   1.930       .  S
C1728      C1729   1.423       .  A
C1728     Br1733   1.911       .  S
C1729      C1730   1.438       .  A
C1730     Br1731   1.895       .  S
C1735      C1736   1.425       .  A
C1735      C1740   1.404       .  A
C1735     Br1742   1.931       .  S
C1736      C1737   1.423       .  A
C1737      C1738   1.431       .  A
C1737     Br1744   1.912       .  S
C1738      C1739   1.418       .  A
C1738     Br1743   1.923       .  S
C1739      C1740   1.406       .  A
C1740     Br1741   1.930       .  S
C1745      C1746   1.413       .  A
C1745      C1750   1.424       .  A
C1745     Br1752   1.929       .  S
C1746      C1747   1.419       .  A
C1747      C1748   1.412       .  A
C1747     Br1754   1.915       .  S
C1748      C1749   1.419       .  A
C1748     Br1753   1.931       .  S
C1749      C1750   1.428       .  A
C1750     Br1751   1.923       .  S
C1755      C1756   1.422       .  A
C1755      C1760   1.404       .  A
C1755     Br1762   1.891       .  S
C1756      C1757   1.417       .  A
C1757      C1758   1.424       .  A
C1757     Br1764   1.921       .  S
C1758      C1759   1.416       .  A
C1758     Br1763   1.919       .  S
C1759      C1760   1.392       .  A
C1760     Br1761   1.929       .  S
C1765      C1766   1.415       .  A
C1765      C1770   1.420       .  A
C1765     Br1772   1.931       .  S
C1766      C1767   1.419       .  A
C1767      C1768   1.425       .  A
C1767     Br1774   1.940       .  S
C1768      C1769   1.433       .  A
C1768     Br1773   1.910       .  S
C1769      C1770   1.417       .  A
C1770     Br1771   1.910       .  S
C1775      C1776   1.427       .  A
C1775      C1780   1.424       .  A
C1775     Br1782   1.924       .  S
C1776      C1777   1.440       .  A
C1777      C1778   1.407       .  A
C1777     Br1784   1.920       .  S
C1778      C1779   1.396       .  A
C1778     Br1783   1.942       .  S
C1779      C1780   1.410       .  A
C1780     Br1781   1.923       .  S
C1785      C1786   1.401       .  A
C1785      C1790   1.396       .  A
C1785     Br1792   1.930       .  S
C1786      C1787   1.410       .  A
C1787      C1788   1.382       .  A
C1787     Br1794   1.921       .  S
C1788      C1789   1.382       .  A
C1788     Br1793   1.918       .  S
C1789      C1790   1.426       .  A
C1790     Br1791   1.924       .  S
C1795      C1796   1.395       .  A
C1795      C1800   1.411       .  A
C1795     Br1802   1.940       .  S
C1796      C1797   1.403       .  A
C1797      C1798   1.406       .  A
C1797     Br1804   1.933       .  S
C1798      C1799   1.423       .  A
C1798     Br1803   1.896       .  S
C1799      C1800   1.434       .  A
C1800     Br1801   1.892       .  S
C1805      C1806   1.424       .  A
C1805      C1810   1.398       .  A
C1805     Br1812   1.896       .  S
C1806      C1807   1.425       .  A
C1807      C1808   1.392       .  A
C1807     Br1814   1.918       .  S
C1808      C1809   1.382       .  A
C1808     Br1813   1.922       .  S
C1809      C1810   1.391       .  A
C1810     Br1811   1.940       .  S
C1815      C1816   1.420       .  A
C1815      C1820   1.393       .  A
C1815     Br1822   1.896       .  S
C1816      C1817   1.417       .  A
C1817      C1818   1.395       .  A
C1817     Br1824   1.901       .  S
C1818      C1819   1.396       .  A
C1818     Br1823   1.931       .  S
C1819      C1820   1.392       .  A
C1820     Br1821   1.933       .  S
C1825      C1826   1.428       .  A
C1825      C1830   1.408       .  A
C1825     Br1832   1.915       .  S
C1826      C1827   1.429       .  A
C1827      C1828   1.397       .  A
C1827     Br1834   1.881       .  S
C1828      C1829   1.389       .  A
C1828     Br1833   1.950       .  S
C1829      C1830   1.403       .  A
C1830     Br1831   1.927       .  S
C1835      C1836   1.416       .  A
C1835      C1840   1.410       .  A
C1835     Br1842   1.938       .  S
C1836      C1837   1.395       .  A
C1837      C1838   1.389       .  A
C1837     Br1844   1.932       .  S
C1838      C1839   1.415       .  A
C1838     Br1843   1.894       .  S
C1839      C1840   1.431       .  A
C1840     Br1841   1.920       .  S
C1845      C1846   1.428       .  A
C1845      C1850   1.392       .  A
C1845     Br1852   1.881       .  S
C1846      C1847   1.429       .  A
C1847      C1848   1.415       .  A
C1847     Br1854   1.922       .  S
C1848      C1849   1.408       .  A
C1848     Br1853   1.920       .  S
C1849      C1850   1.385       .  A
C1850     Br1851   1.946       .  S
C1855      C1856   1.390       .  A
C1855      C1860   1.392       .  A
C1855     Br1862   1.950       .  S
C1856      C1857   1.391       .  A
C1857      C1858   1.402       .  A
C1857     Br1864   1.934       .  S
C1858      C1859   1.429       .  A
C1858     Br1863   1.912       .  S
C1859      C1860   1.432       .  A
C1860     Br1861   1.911       .  S
