geometry optimzed in LAMMPS
_audit_creation_date              2020-11-30 
_audit_creation_method            'lammps2cif' 
_symmetry_space_group_name_H-M    'P1' 
_symmetry_Int_Tables_number       1 
_symmetry_cell_setting            triclinic 
loop_ 
_symmetry_equiv_pos_as_xyz 
  x,y,z 
_cell_length_a                    63.86409276 
_cell_length_b                    63.591855690987344 
_cell_length_c                    29.051350962910547 
_cell_angle_alpha                 90.5990407399933 
_cell_angle_beta                  89.95922534445118 
_cell_angle_gamma                 89.28390137364796 
loop_ 
_atom_site_label 
_atom_site_type_symbol 
_atom_site_fract_x 
_atom_site_fract_y 
_atom_site_fract_z 
_atom_site_charge 
N1          N  0.47568209  0.03517249  0.24060885    -0.26700
N2          N  0.48512338  0.02922359  0.20209681    -0.34600
C3          C  0.47532538  0.03819847  0.16641286     0.01600
C4          C  0.45909374  0.05056368  0.18329736     0.07700
C5          C  0.45969663  0.04833072  0.23051233    -0.05400
H6          H  0.47856707  0.03448990  0.13065807     0.08300
H7          H  0.44810714  0.05394448  0.25505136     0.09500
Cu8        Cu  0.50702034  0.00513887  0.19826062     0.44200
Cu9        Cu  0.48176263  0.02054035  0.30212841     0.42000
Cu10       Cu  0.51092841  0.97013147  0.29409312     0.43900
N11         N  0.52160648  0.97603375  0.19459809    -0.34100
N12         N  0.52254995  0.96271909  0.22916461    -0.28300
C13         C  0.52963882  0.94397105  0.21327324    -0.04400
C14         C  0.53321077  0.94565890  0.16643408     0.07800
C15         C  0.52807006  0.96622642  0.15593068     0.01600
H16         H  0.53068398  0.92984718  0.23361422     0.09200
H17         H  0.52741365  0.97312475  0.12208274     0.08300
N18         N  0.49646299  0.98181804  0.35316887    -0.35500
N19         N  0.48643948  0.00013869  0.35586364    -0.27700
C20         C  0.47843753  0.00264895  0.39827072    -0.03000
C21         C  0.48358492  0.98509959  0.42343809     0.05700
C22         C  0.49497944  0.97214738  0.39397644     0.03800
H23         H  0.46899401  0.01598927  0.40948968     0.08900
H24         H  0.50143981  0.95674557  0.40140755     0.07700
N25         N  0.46176385  0.92186748  0.79491748    -0.26700
N26         N  0.45268515  0.92877868  0.83310000    -0.34600
C27         C  0.46182257  0.91949599  0.86927034     0.01600
C28         C  0.47720260  0.90587639  0.85306786     0.07700
C29         C  0.47685599  0.90779596  0.80573642    -0.05400
H30         H  0.45879963  0.92375148  0.90483911     0.08300
H31         H  0.48808139  0.90119443  0.78151892     0.09500
Cu32       Cu  0.43210685  0.95405953  0.83521544     0.41200
Cu33       Cu  0.45637599  0.93611708  0.73253765     0.42000
Cu34       Cu  0.42896470  0.98786773  0.73742952     0.43900
N35         N  0.41828196  0.98356278  0.83700244    -0.34100
N36         N  0.41778225  0.99660324  0.80191434    -0.28300
C37         C  0.41124623  0.01570405  0.81704027    -0.04400
C38         C  0.40750099  0.01445545  0.86390797     0.07800
C39         C  0.41198180  0.99382981  0.87514889     0.01600
H40         H  0.41059015  0.02968043  0.79615782     0.09200
H41         H  0.41234242  0.98713909  0.90921135     0.08300
N42         N  0.44278836  0.97463945  0.67918274    -0.35500
N43         N  0.45228053  0.95601417  0.67753547    -0.27700
C44         C  0.46026027  0.95282378  0.63526361    -0.03000
C45         C  0.45563495  0.97023785  0.60913450     0.05700
C46         C  0.44454578  0.98377461  0.63787628     0.03800
H47         H  0.46943628  0.93916383  0.62486458     0.08900
H48         H  0.43861275  0.99930329  0.62971698     0.07700
N49         N  0.02305425  0.47038403  0.25468635    -0.26700
N50         N  0.01630036  0.46029463  0.21772498    -0.34600
C51         C  0.02599314  0.46772748  0.18044444     0.01600
C52         C  0.03974298  0.48306338  0.19445911     0.07700
C53         C  0.03746904  0.48447525  0.24178847    -0.05400
H54         H  0.02187915  0.46369450  0.14534825     0.08300
H55         H  0.04413448  0.49624875  0.26437972     0.09500
Cu56       Cu  0.99049021  0.44120264  0.21707827     0.44200
Cu57       Cu  0.00833748  0.46748114  0.31792502     0.42000
Cu58       Cu  0.95623689  0.44187779  0.31348553     0.43900
N59         N  0.96014869  0.43073381  0.21370516    -0.34100
N60         N  0.94692626  0.43150431  0.24865846    -0.28300
C61         C  0.92748020  0.42767482  0.23280222    -0.04400
C62         C  0.92868701  0.42453605  0.18553772     0.07800
C63         C  0.94964988  0.42644409  0.17487422     0.01600
H64         H  0.91338524  0.42890840  0.25338148     0.09200
H65         H  0.95655037  0.42664934  0.14087197     0.08300
N66         N  0.96949857  0.45557272  0.37172547    -0.35500
N67         N  0.98808867  0.46456699  0.37335450    -0.27700
C68         C  0.99096823  0.47283422  0.41563170    -0.03000
C69         C  0.97338134  0.46894857  0.44177094     0.05700
C70         C  0.96012642  0.45794559  0.41293548     0.03800
H71         H  0.00451136  0.48177038  0.42598269     0.08900
H72         H  0.94454927  0.45256621  0.42092316     0.07700
N73         N  0.90503572  0.50647093  0.81216337    -0.26700
N74         N  0.91204604  0.51715366  0.84810198    -0.34600
C75         C  0.90248276  0.51042753  0.88620815     0.01600
C76         C  0.88858960  0.49493627  0.87382374     0.07700
C77         C  0.89055326  0.49279534  0.82658029    -0.05400
H78         H  0.90711617  0.51468979  0.92085955     0.08300
H79         H  0.88405923  0.48041630  0.80534596     0.09500
Cu80       Cu  0.93867108  0.53509308  0.84754146     0.44200
Cu81       Cu  0.92010397  0.50662566  0.74891853     0.42000
Cu82       Cu  0.97293515  0.52956036  0.75188306     0.43900
N83         N  0.96972954  0.54334159  0.85020546    -0.34100
N84         N  0.98279671  0.54083526  0.81529055    -0.28300
C85         C  0.00251768  0.54343989  0.83053506    -0.04400
C86         C  0.00168747  0.54759647  0.87741633     0.07800
C87         C  0.98065427  0.54755118  0.88853993     0.01600
H88         H  0.01641996  0.54063909  0.80995855     0.09200
H89         H  0.97388101  0.54853473  0.92264264     0.08300
N90         N  0.95981308  0.51471433  0.69520566    -0.35500
N91         N  0.94093107  0.50637235  0.69402155    -0.27700
C92         C  0.93811418  0.49706262  0.65274291    -0.03000
C93         C  0.95605612  0.49967773  0.62680900     0.05700
C94         C  0.96942513  0.51098435  0.65475201     0.03800
H95         H  0.92422273  0.48858981  0.64276103     0.08900
H96         H  0.98512873  0.51591691  0.64653163     0.07700
N97         N  0.42404069  0.08039335  0.11107860    -0.26700
N98         N  0.42084436  0.06110694  0.09568392    -0.34600
C99         C  0.43146763  0.04746917  0.12195853     0.01600
C100        C  0.44165319  0.05867118  0.15592403     0.07700
C101        C  0.43663495  0.07954512  0.14819014    -0.05400
H102        H  0.43335219  0.03087834  0.11412430     0.08300
H103        H  0.44356468  0.09310364  0.16470058     0.09500
Cu104      Cu  0.40755052  0.05456233  0.03280857     0.44200
Cu105      Cu  0.41614917  0.10617610  0.07192749     0.42000
Cu106      Cu  0.40653188  0.09474312  0.94763877     0.43900
N107        N  0.40305124  0.04857303  0.96388737    -0.34100
N108        N  0.40360910  0.06296696  0.93147995    -0.28300
C109        C  0.40394203  0.05319282  0.89002414    -0.04400
C110        C  0.40365411  0.03165970  0.89720998     0.07800
C111        C  0.40295788  0.02941479  0.94436638     0.01600
H112        H  0.40565845  0.06108318  0.85745479     0.09200
H113        H  0.40398551  0.01491580  0.96340043     0.08300
N114        N  0.40955390  0.12458270  0.97687114    -0.35500
N115        N  0.41246782  0.12847256  0.02127963    -0.27700
C116        C  0.41431389  0.14927526  0.02793539    -0.03000
C117        C  0.41251452  0.15899896  0.98589936     0.05700
C118        C  0.40952534  0.14292976  0.95421213     0.03800
H119        H  0.41752157  0.15670874  0.06081030     0.08900
H120        H  0.40783917  0.14441891  0.91733370     0.07700
N121        N  0.07046559  0.51180847  0.11234719    -0.26700
N122        N  0.05132633  0.51832799  0.10206277    -0.34600
C123        C  0.03781079  0.51047278  0.13256272     0.01600
C124        C  0.04893132  0.49865506  0.16398820     0.07700
C125        C  0.06961400  0.49970997  0.15010573    -0.05400
H126        H  0.02094924  0.51172283  0.12967784     0.08300
H127        H  0.08269317  0.49074066  0.16362268     0.09500
Cu128      Cu  0.04347413  0.53343295  0.04179161     0.44200
Cu129      Cu  0.09561135  0.51623784  0.06844258     0.42000
Cu130      Cu  0.08166609  0.53470610  0.95219813     0.43900
N131        N  0.03649574  0.54196986  0.97511329    -0.34100
N132        N  0.05034833  0.54180296  0.94133519    -0.28300
C133        C  0.04030886  0.54497156  0.90120208    -0.04400
C134        C  0.01912155  0.54723165  0.91044251     0.07800
C135        C  0.01732527  0.54534153  0.95763256     0.01600
H136        H  0.04772787  0.54446577  0.86771334     0.09200
H137        H  0.00301329  0.54487354  0.97750902     0.08300
N138        N  0.11169343  0.52682807  0.97333892    -0.35500
N139        N  0.11675670  0.52047114  0.01515939    -0.27700
C140        C  0.13756080  0.51715740  0.01699471    -0.03000
C141        C  0.14599226  0.52159012  0.97434880     0.05700
C142        C  0.12912799  0.52763779  0.94752843     0.03800
H143        H  0.14596119  0.51211854  0.04735077     0.08900
H144        H  0.12947622  0.53233029  0.91185073     0.07700
N145        N  0.51009800  0.87576336  0.92967564    -0.26700
N146        N  0.51589927  0.89514056  0.93973867    -0.34600
C147        C  0.50639453  0.90852683  0.91091148     0.01600
C148        C  0.49417368  0.89707280  0.88090624     0.07700
C149        C  0.49679329  0.87632399  0.89372378    -0.05400
H150        H  0.50672545  0.92547678  0.91444387     0.08300
H151        H  0.48806860  0.86298187  0.88109664     0.09500
Cu152      Cu  0.53139160  0.90347072  0.99924337     0.44200
Cu153      Cu  0.51695719  0.85067248  0.97230172     0.42000
Cu154      Cu  0.53586849  0.86487258  0.08786614     0.43900
N155        N  0.53741948  0.91094650  0.06709370    -0.34100
N156        N  0.53842477  0.89696069  0.10035110    -0.28300
C157        C  0.53850127  0.90717585  0.14120659    -0.04400
C158        C  0.53738285  0.92858217  0.13299468     0.07800
C159        C  0.53684982  0.93035071  0.08565492     0.01600
H160        H  0.53783035  0.89956108  0.17428486     0.09200
H161        H  0.53440951  0.94456566  0.06614863     0.08300
N162        N  0.53007270  0.83431202  0.06572896    -0.35500
N163        N  0.52340094  0.82927097  0.02394638    -0.27700
C164        C  0.52006382  0.80846109  0.02184373    -0.03000
C165        C  0.52487151  0.80003206  0.06415654     0.05700
C166        C  0.53105525  0.81679768  0.09130772     0.03800
H167        H  0.51368927  0.80023131  0.99234457     0.08900
H168        H  0.53518139  0.81642921  0.12740242     0.07700
N169        N  0.86000360  0.46163985  0.95177723    -0.26700
N170        N  0.87952176  0.45742691  0.96392562    -0.34600
C171        C  0.89254347  0.46794054  0.93649469     0.01600
C172        C  0.88066023  0.47906199  0.90520574     0.07700
C173        C  0.86006175  0.47478136  0.91570617    -0.05400
H174        H  0.90937334  0.46834477  0.94058804     0.08300
H175        H  0.84622111  0.48187041  0.90065166     0.09500
Cu176      Cu  0.88764771  0.44056805  0.02171873     0.44200
Cu177      Cu  0.83493296  0.45239113  0.99119556     0.42000
Cu178      Cu  0.84850285  0.43328605  0.10774906     0.43900
N179        N  0.89431712  0.43001798  0.08709955    -0.34100
N180        N  0.88017538  0.42816856  0.11995905    -0.28300
C181        C  0.89007256  0.42464424  0.16018629    -0.04400
C182        C  0.91145246  0.42425752  0.15189743     0.07800
C183        C  0.91348967  0.42756783  0.10517159     0.01600
H184        H  0.88235800  0.42371500  0.19325358     0.09200
H185        H  0.92786876  0.42978912  0.08623737     0.08300
N186        N  0.81835642  0.43950420  0.08428880    -0.35500
N187        N  0.81357109  0.44573710  0.04222204    -0.27700
C188        C  0.79271173  0.44806429  0.03881416    -0.03000
C189        C  0.78388256  0.44323587  0.08076748     0.05700
C190        C  0.80060439  0.43787858  0.10877801     0.03800
H191        H  0.78460861  0.45296883  0.00797455     0.08900
H192        H  0.79995327  0.43330746  0.14451213     0.07700
N193        N  0.31826234  0.47158955  0.87336063    -0.26700
N194        N  0.33678426  0.48059829  0.87500997    -0.34600
C195        C  0.35178471  0.46569718  0.87152642     0.01600
C196        C  0.34232603  0.44632469  0.86770684     0.07700
C197        C  0.32101241  0.45063532  0.86891503    -0.05400
H198        H  0.36837661  0.46860526  0.87479941     0.08300
H199        H  0.30848024  0.43934526  0.86891948     0.09500
Cu200      Cu  0.34124300  0.51200795  0.89099575     0.44200
Cu201      Cu  0.29051748  0.48811640  0.88427890     0.42000
Cu202      Cu  0.29669722  0.54059528  0.93513460     0.43900
N203        N  0.34335574  0.54121193  0.92261233    -0.34100
N204        N  0.32709321  0.55143457  0.94051256    -0.28300
C205        C  0.33395833  0.56826688  0.96429743    -0.04400
C206        C  0.35555504  0.56867782  0.96074056     0.07800
C207        C  0.36097660  0.55131518  0.93415800     0.01600
H208        H  0.32408852  0.57881560  0.98444182     0.09200
H209        H  0.37665129  0.54565303  0.92647394     0.08300
N210        N  0.26813439  0.52609072  0.92509558    -0.35500
N211        N  0.26588297  0.50735774  0.90564474    -0.27700
C212        C  0.24549583  0.50239608  0.90584133    -0.03000
C213        C  0.23436723  0.51867301  0.92682875     0.05700
C214        C  0.24924122  0.53344658  0.93846934     0.03800
H215        H  0.23932057  0.48772167  0.89286669     0.08900
H216        H  0.24664044  0.54814057  0.95681592     0.07700
N217        N  0.40910261  0.34267869  0.91579485    -0.26700
N218        N  0.42393022  0.35698646  0.91610890    -0.34600
C219        C  0.41570351  0.37550960  0.90302387     0.01600
C220        C  0.39465549  0.37279395  0.89399119     0.07700
C221        C  0.39098351  0.35175497  0.90242661    -0.05400
H222        H  0.42421737  0.39010301  0.90211269     0.08300
H223        H  0.37616516  0.34375620  0.90009823     0.09500
Cu224      Cu  0.45409577  0.35144594  0.93897996     0.44200
Cu225      Cu  0.41431659  0.31183862  0.93572015     0.42000
Cu226      Cu  0.46636830  0.30012064  0.98197292     0.43900
N227        N  0.48165208  0.34410862  0.97266342    -0.34100
N228        N  0.48596903  0.32540143  0.98986780    -0.28300
C229        C  0.50399360  0.32635144  0.01366738    -0.04400
C230        C  0.51134595  0.34664031  0.01086143     0.07800
C231        C  0.49684988  0.35745857  0.98467652     0.01600
H232        H  0.51090110  0.31343177  0.03252814     0.09200
H233        H  0.49684890  0.37404793  0.97678108     0.08300
N234        N  0.44385447  0.27785012  0.96921681    -0.35500
N235        N  0.42483932  0.28202403  0.95344492    -0.27700
C236        C  0.41424917  0.26394069  0.94972732    -0.03000
C237        C  0.42733812  0.24771485  0.96345963     0.05700
C238        C  0.44593615  0.25705745  0.97560528     0.03800
H239        H  0.39829155  0.26268579  0.93763306     0.08900
H240        H  0.45989236  0.24934358  0.98859153     0.07700
N241        N  0.61212535  0.48979468  0.19344240    -0.26700
N242        N  0.59373565  0.48051872  0.19353972    -0.34600
C243        C  0.57859324  0.49519538  0.19856400     0.01600
C244        C  0.58785728  0.51469749  0.20151859     0.07700
C245        C  0.60917328  0.51067668  0.19837435    -0.05400
H246        H  0.56200447  0.49208120  0.19633622     0.08300
H247        H  0.62151704  0.52214218  0.19677776     0.09500
Cu248      Cu  0.58964946  0.44926463  0.17630063     0.44200
Cu249      Cu  0.63979115  0.47396793  0.17812064     0.42000
Cu250      Cu  0.63424590  0.42178368  0.12706745     0.43900
N251        N  0.58782801  0.42065965  0.14238398    -0.34100
N252        N  0.60401099  0.41082323  0.12317697    -0.28300
C253        C  0.59715917  0.39405914  0.09925318    -0.04400
C254        C  0.57562936  0.39337144  0.10379522     0.07800
C255        C  0.57025438  0.41042957  0.13134412     0.01600
H256        H  0.60702166  0.38360045  0.07886631     0.09200
H257        H  0.55461258  0.41566378  0.14062421     0.08300
N258        N  0.66247701  0.43687736  0.13475771    -0.35500
N259        N  0.66453320  0.45572083  0.15376058    -0.27700
C260        C  0.68474654  0.46123296  0.15185122    -0.03000
C261        C  0.69590584  0.44511005  0.13048375     0.05700
C262        C  0.68130555  0.42991470  0.12017575     0.03800
H263        H  0.69078045  0.47607411  0.16421679     0.08900
H264        H  0.68404438  0.41515680  0.10216221     0.07700
N265        N  0.52111200  0.61903231  0.15892404    -0.26700
N266        N  0.50640045  0.60464096  0.15642513    -0.34600
C267        C  0.51472194  0.58582277  0.16693958     0.01600
C268        C  0.53571569  0.58843208  0.17644281     0.07700
C269        C  0.53930785  0.60968805  0.17095649    -0.05400
H270        H  0.50628721  0.57117395  0.16601864     0.08300
H271        H  0.55407944  0.61767986  0.17458272     0.09500
Cu272      Cu  0.47633015  0.61049152  0.13363650     0.44200
Cu273      Cu  0.51551306  0.65029884  0.14306435     0.42000
Cu274      Cu  0.46430503  0.66166510  0.08996645     0.43900
N275        N  0.44893226  0.61749632  0.09919744    -0.34100
N276        N  0.44439799  0.63619721  0.08224834    -0.28300
C277        C  0.42639267  0.63492956  0.05827217    -0.04400
C278        C  0.41937150  0.61437530  0.06020409     0.07800
C279        C  0.43410337  0.60385074  0.08647341     0.01600
H280        H  0.41929188  0.64783499  0.03971164     0.09200
H281        H  0.43457548  0.58721364  0.09388985     0.08300
N282        N  0.48731526  0.68391459  0.10255690    -0.35500
N283        N  0.50560342  0.67986762  0.12217881    -0.27700
C284        C  0.51665405  0.69771179  0.12467873    -0.03000
C285        C  0.50483756  0.71377012  0.10553180     0.05700
C286        C  0.48634716  0.70442756  0.09189856     0.03800
H287        H  0.53223489  0.69884184  0.13901291     0.08900
H288        H  0.47328082  0.71191830  0.07463372     0.07700
C289        C  0.57667404  0.53527000  0.19893257    -0.04700
C290        C  0.58089610  0.54937290  0.16280633    -0.01900
C291        C  0.56828214  0.56753834  0.15708870     0.03100
C292        C  0.55102517  0.57137769  0.18657607    -0.04700
C293        C  0.54738083  0.55778204  0.22377072    -0.01800
C294        C  0.56033585  0.53997484  0.23030096     0.03100
C295        C  0.59728794  0.54459254  0.12954801     0.37800
C296        C  0.53025158  0.56213260  0.25545809     0.37800
C297        C  0.55695377  0.52656891  0.26966777     0.36200
C298        C  0.57240715  0.58159946  0.11920698     0.36200
N299        N  0.55432442  0.51596402  0.30123063    -0.38600
N300        N  0.57580131  0.59280875  0.08904486    -0.38600
N301        N  0.51654828  0.56560578  0.28060627    -0.38100
N302        N  0.61030325  0.54079654  0.10287556    -0.38100
C303        C  0.52945560  0.35595157  0.03483515    -0.04700
C304        C  0.53001598  0.35684414  0.08338876    -0.01900
C305        C  0.54578940  0.36829338  0.10594257     0.03100
C306        C  0.56085815  0.37915901  0.08007084    -0.04700
C307        C  0.56072816  0.37760099  0.03149795    -0.01800
C308        C  0.54521293  0.36577320  0.00902919     0.03100
C309        C  0.51373656  0.34699078  0.11019744     0.37800
C310        C  0.57562040  0.38926039  0.00434460     0.37800
C311        C  0.54537140  0.36375388  0.95920987     0.36200
C312        C  0.54639997  0.36905842  0.15587786     0.36200
N313        N  0.54550647  0.36201127  0.91951642    -0.38600
N314        N  0.54692692  0.36970004  0.19568700    -0.38600
N315        N  0.58736284  0.39864434  0.98250316    -0.38100
N316        N  0.50073476  0.33921845  0.13168523    -0.38100
C317        C  0.37026178  0.58214709  0.98680502    -0.04700
C318        C  0.38344222  0.59603412  0.96323030    -0.01900
C319        C  0.39898546  0.60725615  0.98733998     0.03100
C320        C  0.40147937  0.60459468  0.03537352    -0.04700
C321        C  0.38775875  0.59113460  0.05909353    -0.01800
C322        C  0.37223385  0.57996960  0.03488721     0.03100
C323        C  0.38112057  0.59859198  0.91391284     0.37800
C324        C  0.38960779  0.58862335  0.10852687     0.37800
C325        C  0.35890678  0.56546467  0.05921532     0.36200
C326        C  0.41311754  0.62055966  0.96199147     0.36200
N327        N  0.34830583  0.55384820  0.07852828    -0.38600
N328        N  0.42436872  0.63113777  0.94159986    -0.38600
N329        N  0.39108632  0.58649941  0.14791415    -0.38100
N330        N  0.37924039  0.60063252  0.87458824    -0.38100
C331        C  0.35331952  0.42562188  0.86990283    -0.04700
C332        C  0.34877001  0.41129228  0.90534476    -0.01900
C333        C  0.36158111  0.39329746  0.91164164     0.03100
C334        C  0.37924111  0.38971936  0.88308510    -0.04700
C335        C  0.38307892  0.40344981  0.84617376    -0.01800
C336        C  0.37000809  0.42115538  0.83928349     0.03100
C337        C  0.33180428  0.41568225  0.93741351     0.37800
C338        C  0.40056609  0.39944492  0.81524278     0.37800
C339        C  0.37366601  0.43477877  0.80039224     0.36200
C340        C  0.35730112  0.37926763  0.94949788     0.36200
N341        N  0.37647700  0.44560491  0.76927331    -0.38600
N342        N  0.35383650  0.36808420  0.97966802    -0.38600
N343        N  0.41454834  0.39634221  0.79062723    -0.38100
N344        N  0.31832653  0.41911662  0.96317378    -0.38100
C345        C  0.76130773  0.44372897  0.09316626    -0.04700
C346        C  0.75238537  0.42655968  0.11631456    -0.01900
C347        C  0.73118522  0.42730198  0.12969521     0.03100
C348        C  0.71843129  0.44475061  0.11806060    -0.04700
C349        C  0.72714099  0.46162228  0.09357372    -0.01800
C350        C  0.74856615  0.46130520  0.08193269     0.03100
C351        C  0.76469972  0.40763650  0.12458293     0.37800
C352        C  0.71393878  0.47902726  0.07874951     0.37800
C353        C  0.75744730  0.47935280  0.05918247     0.36200
C354        C  0.72270321  0.41029595  0.15662505     0.36200
N355        N  0.76439987  0.49378920  0.04097482    -0.38600
N356        N  0.71602637  0.39676107  0.17830384    -0.38600
N357        N  0.70341288  0.49286191  0.06673505    -0.38100
N358        N  0.77446464  0.39248296  0.13085422    -0.38100
C359        C  0.52080487  0.77825658  0.07876913    -0.04700
C360        C  0.50204261  0.77361327  0.10190942    -0.01900
C361        C  0.49709293  0.75259177  0.11179676     0.03100
C362        C  0.51092026  0.73604010  0.09856926    -0.04700
C363        C  0.53013885  0.74086939  0.07696959    -0.01800
C364        C  0.53499883  0.76192832  0.06702762     0.03100
C365        C  0.48755830  0.79048146  0.11448704     0.37800
C366        C  0.54454958  0.72419563  0.06289652     0.37800
C367        C  0.55451831  0.76682497  0.04414358     0.36200
C368        C  0.47783121  0.74809407  0.13609694     0.36200
N369        N  0.57009353  0.77073979  0.02593638    -0.38600
N370        N  0.46244345  0.74454933  0.15543123    -0.38600
N371        N  0.55610120  0.71093869  0.05167375    -0.38100
N372        N  0.47603621  0.80396683  0.12444567    -0.38100
C373        C  0.16844784  0.52064929  0.96090646    -0.04700
C374        C  0.17790645  0.53806619  0.93974072    -0.01900
C375        C  0.19936451  0.53735341  0.92819973     0.03100
C376        C  0.21165154  0.51932622  0.93825217    -0.04700
C377        C  0.20220820  0.50200025  0.95985972    -0.01800
C378        C  0.18065341  0.50251333  0.97031661     0.03100
C379        C  0.16578555  0.55707842  0.93109946     0.37800
C380        C  0.21479343  0.48396673  0.97358915     0.37800
C381        C  0.17097842  0.48405632  0.98969506     0.36200
C382        C  0.20866943  0.55519387  0.90551147     0.36200
N383        N  0.16331027  0.46928395  0.00498672    -0.38600
N384        N  0.21602259  0.56950093  0.88759063    -0.38600
N385        N  0.22481033  0.46962465  0.98482849    -0.38100
N386        N  0.15614553  0.57224905  0.92416944    -0.38100
C387        C  0.41518589  0.18170601  0.97709494    -0.04700
C388        C  0.40272163  0.19670321  0.00112771    -0.01900
C389        C  0.40638476  0.21833888  0.99585801     0.03100
C390        C  0.42246451  0.22509970  0.96637271    -0.04700
C391        C  0.43457991  0.21015629  0.94142461    -0.01800
C392        C  0.43101564  0.18850534  0.94688791     0.03100
C393        C  0.38604415  0.18989946  0.03126482     0.37800
C394        C  0.45068143  0.21705950  0.90990543     0.37800
C395        C  0.44437696  0.17327694  0.92314777     0.36200
C396        C  0.39422130  0.23359982  0.02244469     0.36200
N397        N  0.45509251  0.16115465  0.90430933    -0.38600
N398        N  0.38458261  0.24578117  0.04374470    -0.38600
N399        N  0.46350368  0.22255062  0.88472020    -0.38100
N400        N  0.37274957  0.18449793  0.05533635    -0.38100
C401        C  0.96891226  0.47669613  0.48918407    -0.04700
C402        C  0.98287474  0.47200999  0.52543897    -0.01900
C403        C  0.97868236  0.47949755  0.57041450     0.03100
C404        C  0.96036917  0.49157232  0.57957447    -0.04700
C405        C  0.94636852  0.49618033  0.54331262    -0.01800
C406        C  0.95076346  0.48900690  0.49820983     0.03100
C407        C  0.00131791  0.45899148  0.51679959     0.37800
C408        C  0.92777408  0.50897806  0.55193971     0.37800
C409        C  0.93712365  0.49526591  0.46069823     0.36200
C410        C  0.99296566  0.47418117  0.60747653     0.36200
N411        N  0.92632964  0.50038828  0.43075009    -0.38600
N412        N  0.00439591  0.46997249  0.63697363    -0.38600
N413        N  0.91291122  0.51913728  0.55877176    -0.38100
N414        N  0.01602653  0.44860044  0.51000395    -0.38100
C415        C  0.46270911  0.97409617  0.56157387    -0.04700
C416        C  0.45722169  0.96000156  0.52581744    -0.01900
C417        C  0.46414041  0.96351518  0.48054974     0.03100
C418        C  0.47697792  0.98085504  0.47111069    -0.04700
C419        C  0.48264815  0.99481742  0.50692974    -0.01800
C420        C  0.47536957  0.99157008  0.55199744     0.03100
C421        C  0.44381746  0.94229180  0.53527098     0.37800
C422        C  0.49640871  0.01226914  0.49761006     0.37800
C423        C  0.48137754  0.00595548  0.58864333     0.36200
C424        C  0.45716727  0.94989343  0.44336902     0.36200
N425        N  0.48612843  0.01749240  0.61777435    -0.38600
N426        N  0.45146307  0.93912455  0.41368981    -0.38600
N427        N  0.50742581  0.02613975  0.49014494    -0.38100
N428        N  0.43313216  0.92817273  0.54284242    -0.38100
loop_ 
_geom_bond_atom_site_label_1 
_geom_bond_atom_site_label_2 
_geom_bond_distance 
_geom_bond_site_symmetry_2 
_ccdc_geom_bond_type 
N1            N2   1.320       .  A
N1            C5   1.346       .  A
N1           Cu9   2.059       .  S
N2            C3   1.340       .  A
N2           Cu8   2.063       .  S
C3            C4   1.380       .  A
C3            H6   1.082       .  S
C4            C5   1.381       .  A
C4          C100   1.461       .  S
C5            H7   1.082       .  S
Cu8          N11   2.063   1_545  S
Cu9          N19   2.060       .  S
Cu10         N12   2.074       .  S
Cu10         N18   2.075       .  S
N11          N12   1.321       .  A
N11          C15   1.341       .  A
N12          C13   1.347       .  A
C13          C14   1.385       .  A
C13          H16   1.082       .  S
C14          C15   1.382       .  A
C14         C158   1.471       .  S
C15          H17   1.082       .  S
N18          N19   1.324   1_565  A
N18          C22   1.345       .  A
N19          C20   1.341       .  A
C20          C21   1.377   1_545  A
C20          H23   1.082       .  S
C21          C22   1.382       .  A
C21         C418   1.476       .  S
C22          H24   1.082       .  S
N25          N26   1.320       .  A
N25          C29   1.347       .  A
N25         Cu33   2.062       .  S
N26          C27   1.341       .  A
N26         Cu32   2.064       .  S
C27          C28   1.381       .  A
C27          H30   1.082       .  S
C28          C29   1.382       .  A
C28         C148   1.462       .  S
C29          H31   1.082       .  S
Cu32         N35   2.064       .  S
Cu33         N43   2.063       .  S
Cu34         N36   2.072       .  S
Cu34         N42   2.074       .  S
N35          N36   1.321       .  A
N35          C39   1.339       .  A
N36          C37   1.349   1_565  A
C37          C38   1.386       .  A
C37          H40   1.082       .  S
C38          C39   1.382   1_545  A
C38         C110   1.471       .  S
C39          H41   1.081       .  S
N42          N43   1.324       .  A
N42          C46   1.344       .  A
N43          C44   1.342       .  A
C44          C45   1.378       .  A
C44          H47   1.082       .  S
C45          C46   1.382       .  A
C45         C415   1.477       .  S
C46          H48   1.082       .  S
N49          N50   1.321       .  A
N49          C53   1.348       .  A
N49         Cu57   2.074       .  S
N50          C51   1.340       .  A
N50         Cu56   2.059   1_455  S
C51          C52   1.379       .  A
C51          H54   1.082       .  S
C52          C53   1.384       .  A
C52         C124   1.464       .  S
C53          H55   1.082       .  S
Cu56         N59   2.059       .  S
Cu57         N67   2.076   1_455  S
Cu58         N60   2.079       .  S
Cu58         N66   2.080       .  S
N59          N60   1.320       .  A
N59          C63   1.340       .  A
N60          C61   1.349       .  A
C61          C62   1.387       .  A
C61          H64   1.082       .  S
C62          C63   1.381       .  A
C62         C182   1.473       .  S
C63          H65   1.082       .  S
N66          N67   1.325       .  A
N66          C70   1.344       .  A
N67          C68   1.345       .  A
C68          C69   1.382       .  A
C68          H71   1.082   1_655  S
C69          C70   1.383       .  A
C69         C401   1.484       .  S
C70          H72   1.082       .  S
N73          N74   1.321       .  A
N73          C77   1.347       .  A
N73         Cu81   2.074       .  S
N74          C75   1.341       .  A
N74         Cu80   2.060       .  S
C75          C76   1.379       .  A
C75          H78   1.082       .  S
C76          C77   1.383       .  A
C76         C172   1.462       .  S
C77          H79   1.082       .  S
Cu80         N83   2.059       .  S
Cu81         N91   2.076       .  S
Cu82         N84   2.071       .  S
Cu82         N90   2.072       .  S
N83          N84   1.320       .  A
N83          C87   1.341       .  A
N84          C85   1.347   1_655  A
C85          C86   1.386       .  A
C85          H88   1.082       .  S
C86          C87   1.381   1_455  A
C86         C134   1.470       .  S
C87          H89   1.082       .  S
N90          N91   1.324       .  A
N90          C94   1.343       .  A
N91          C92   1.345       .  A
C92          C93   1.384       .  A
C92          H95   1.082       .  S
C93          C94   1.382       .  A
C93         C404   1.485       .  S
C94          H96   1.082       .  S
N97          N98   1.319       .  A
N97         C101   1.347       .  A
N97        Cu105   2.063       .  S
N98          C99   1.340       .  A
N98        Cu104   2.056       .  S
C99         C100   1.379       .  A
C99         H102   1.082       .  S
C100        C101   1.382       .  A
C101        H103   1.082       .  S
Cu104       N107   2.055   1_554  S
Cu105       N115   2.066       .  S
Cu106       N108   2.080       .  S
Cu106       N114   2.082       .  S
N107        N108   1.321       .  A
N107        C111   1.339       .  A
N108        C109   1.350       .  A
C109        C110   1.388       .  A
C109        H112   1.082       .  S
C110        C111   1.380       .  A
C111        H113   1.081       .  S
N114        N115   1.325   1_556  A
N114        C118   1.346       .  A
N115        C116   1.342       .  A
C116        C117   1.379   1_554  A
C116        H119   1.082       .  S
C117        C118   1.383       .  A
C117        C387   1.481       .  S
C118        H120   1.082       .  S
N121        N122   1.321       .  A
N121        C125   1.348       .  A
N121       Cu129   2.074       .  S
N122        C123   1.341       .  A
N122       Cu128   2.065       .  S
C123        C124   1.380       .  A
C123        H126   1.082       .  S
C124        C125   1.383       .  A
C125        H127   1.082       .  S
Cu128       N131   2.065   1_554  S
Cu129       N139   2.075       .  S
Cu130       N132   2.070       .  S
Cu130       N138   2.071       .  S
N131        N132   1.321       .  A
N131        C135   1.341       .  A
N132        C133   1.347       .  A
C133        C134   1.385       .  A
C133        H136   1.082       .  S
C134        C135   1.382       .  A
C135        H137   1.082       .  S
N138        N139   1.323   1_556  A
N138        C142   1.344       .  A
N139        C140   1.344       .  A
C140        C141   1.384   1_554  A
C140        H143   1.082       .  S
C141        C142   1.383       .  A
C141        C373   1.486       .  S
C142        H144   1.082       .  S
N145        N146   1.321       .  A
N145        C149   1.347       .  A
N145       Cu153   2.073       .  S
N146        C147   1.341       .  A
N146       Cu152   2.060       .  S
C147        C148   1.379       .  A
C147        H150   1.082       .  S
C148        C149   1.383       .  A
C149        H151   1.082       .  S
Cu152       N155   2.061   1_556  S
Cu153       N163   2.074   1_556  S
Cu154       N156   2.077       .  S
Cu154       N162   2.078       .  S
N155        N156   1.321       .  A
N155        C159   1.342       .  A
N156        C157   1.347       .  A
C157        C158   1.385       .  A
C157        H160   1.082       .  S
C158        C159   1.381       .  A
C159        H161   1.082       .  S
N162        N163   1.324       .  A
N162        C166   1.346       .  A
N163        C164   1.344       .  A
C164        C165   1.379       .  A
C164        H167   1.082   1_554  S
C165        C166   1.381       .  A
C165        C359   1.479       .  S
C166        H168   1.082       .  S
N169        N170   1.321       .  A
N169        C173   1.347       .  A
N169       Cu177   2.063       .  S
N170        C171   1.341       .  A
N170       Cu176   2.065   1_556  S
C171        C172   1.380       .  A
C171        H174   1.082       .  S
C172        C173   1.381       .  A
C173        H175   1.082       .  S
Cu176       N179   2.064       .  S
Cu177       N187   2.065   1_556  S
Cu178       N180   2.076       .  S
Cu178       N186   2.078       .  S
N179        N180   1.321       .  A
N179        C183   1.341       .  A
N180        C181   1.349       .  A
C181        C182   1.386       .  A
C181        H184   1.082       .  S
C182        C183   1.382       .  A
C183        H185   1.082       .  S
N186        N187   1.324       .  A
N186        C190   1.344       .  A
N187        C188   1.342       .  A
C188        C189   1.382       .  A
C188        H191   1.082       .  S
C189        C190   1.384       .  A
C189        C345   1.486       .  S
C190        H192   1.082       .  S
N193        N194   1.321       .  A
N193        C197   1.347       .  A
N193       Cu201   2.071       .  S
N194        C195   1.342       .  A
N194       Cu200   2.069       .  S
C195        C196   1.382       .  A
C195        H198   1.082       .  S
C196        C197   1.385       .  A
C196        C331   1.486       .  S
C197        H199   1.082       .  S
Cu200       N203   2.069       .  S
Cu201       N211   2.072       .  S
Cu202       N204   2.074       .  S
Cu202       N210   2.074       .  S
N203        N204   1.322       .  A
N203        C207   1.344       .  A
N204        C205   1.346       .  A
C205        C206   1.384       .  A
C205        H208   1.082       .  S
C206        C207   1.381       .  A
C206        C317   1.482       .  S
C207        H209   1.082       .  S
N210        N211   1.323       .  A
N210        C214   1.344       .  A
N211        C212   1.344       .  A
C212        C213   1.384       .  A
C212        H215   1.082       .  S
C213        C214   1.384       .  A
C213        C376   1.488       .  S
C214        H216   1.082       .  S
N217        N218   1.321       .  A
N217        C221   1.346       .  A
N217       Cu225   2.074       .  S
N218        C219   1.342       .  A
N218       Cu224   2.066       .  S
C219        C220   1.382       .  A
C219        H222   1.082       .  S
C220        C221   1.386       .  A
C220        C334   1.486       .  S
C221        H223   1.082       .  S
Cu224       N227   2.065       .  S
Cu225       N235   2.074       .  S
Cu226       N228   2.061       .  S
Cu226       N234   2.062       .  S
N227        N228   1.321       .  A
N227        C231   1.341       .  A
N228        C229   1.345   1_556  A
C229        C230   1.382       .  A
C229        H232   1.082       .  S
C230        C231   1.380   1_554  A
C230        C303   1.477       .  S
C231        H233   1.082       .  S
N234        N235   1.323       .  A
N234        C238   1.342       .  A
N235        C236   1.345       .  A
C236        C237   1.382       .  A
C236        H239   1.082       .  S
C237        C238   1.379       .  A
C237        C390   1.479       .  S
C238        H240   1.082       .  S
N241        N242   1.321       .  A
N241        C245   1.345       .  A
N241       Cu249   2.068       .  S
N242        C243   1.342       .  A
N242       Cu248   2.064       .  S
C243        C244   1.383       .  A
C243        H246   1.082       .  S
C244        C245   1.385       .  A
C244        C289   1.485       .  S
C245        H247   1.082       .  S
Cu248       N251   2.064       .  S
Cu249       N259   2.069       .  S
Cu250       N252   2.064       .  S
Cu250       N258   2.064       .  S
N251        N252   1.322       .  A
N251        C255   1.342       .  A
N252        C253   1.344       .  A
C253        C254   1.382       .  A
C253        H256   1.082       .  S
C254        C255   1.381       .  A
C254        C306   1.480       .  S
C255        H257   1.082       .  S
N258        N259   1.322       .  A
N258        C262   1.343       .  A
N259        C260   1.343       .  A
C260        C261   1.383       .  A
C260        H263   1.082       .  S
C261        C262   1.382       .  A
C261        C348   1.483       .  S
C262        H264   1.082       .  S
N265        N266   1.321       .  A
N265        C269   1.347       .  A
N265       Cu273   2.072       .  S
N266        C267   1.342       .  A
N266       Cu272   2.062       .  S
C267        C268   1.381       .  A
C267        H270   1.082       .  S
C268        C269   1.385       .  A
C268        C292   1.483       .  S
C269        H271   1.082       .  S
Cu272       N275   2.062       .  S
Cu273       N283   2.073       .  S
Cu274       N276   2.082       .  S
Cu274       N282   2.083       .  S
N275        N276   1.321       .  A
N275        C279   1.342       .  A
N276        C277   1.348       .  A
C277        C278   1.389       .  A
C277        H280   1.082       .  S
C278        C279   1.383       .  A
C278        C320   1.491       .  S
C279        H281   1.082       .  S
N282        N283   1.324       .  A
N282        C286   1.345       .  A
N283        C284   1.345       .  A
C284        C285   1.384       .  A
C284        H287   1.082       .  S
C285        C286   1.385       .  A
C285        C362   1.489       .  S
C286        H288   1.082       .  S
C289        C290   1.416       .  A
C289        C294   1.412       .  A
C290        C291   1.411       .  A
C290        C295   1.451       .  S
C291        C292   1.413       .  A
C291        C298   1.451       .  S
C292        C293   1.412       .  A
C293        C294   1.409       .  A
C293        C296   1.451       .  S
C294        C297   1.451       .  S
C295        N302   1.157       .  T
C296        N301   1.157       .  T
C297        N299   1.157       .  T
C298        N300   1.157       .  T
C303        C304   1.412       .  A
C303        C308   1.410       .  A
C304        C305   1.408       .  A
C304        C309   1.451       .  S
C305        C306   1.412       .  A
C305        C312   1.452       .  S
C306        C307   1.414       .  A
C307        C308   1.408       .  A
C307        C310   1.451       .  S
C308        C311   1.452   1_554  S
C309        N316   1.157       .  T
C310        N315   1.157   1_554  T
C311        N313   1.157       .  T
C312        N314   1.157       .  T
C317        C318   1.410       .  A
C317        C322   1.411   1_556  A
C318        C319   1.412       .  A
C318        C323   1.451       .  S
C319        C320   1.416   1_556  A
C319        C326   1.450       .  S
C320        C321   1.416       .  A
C321        C322   1.411       .  A
C321        C324   1.451       .  S
C322        C325   1.452       .  S
C323        N330   1.157       .  T
C324        N329   1.157       .  T
C325        N327   1.157       .  T
C326        N328   1.157       .  T
C331        C332   1.414       .  A
C331        C336   1.412       .  A
C332        C333   1.412       .  A
C332        C337   1.451       .  S
C333        C334   1.414       .  A
C333        C340   1.451       .  S
C334        C335   1.413       .  A
C335        C336   1.409       .  A
C335        C338   1.451       .  S
C336        C339   1.451       .  S
C337        N344   1.157       .  T
C338        N343   1.157       .  T
C339        N341   1.157       .  T
C340        N342   1.157       .  T
C345        C346   1.414       .  A
C345        C350   1.415       .  A
C346        C347   1.408       .  A
C346        C351   1.452       .  S
C347        C348   1.412       .  A
C347        C354   1.451       .  S
C348        C349   1.413       .  A
C349        C350   1.409       .  A
C349        C352   1.452       .  S
C350        C353   1.452       .  S
C351        N358   1.157       .  T
C352        N357   1.157       .  T
C353        N355   1.157       .  T
C354        N356   1.157       .  T
C359        C360   1.410       .  A
C359        C364   1.409       .  A
C360        C361   1.410       .  A
C360        C365   1.451       .  S
C361        C362   1.415       .  A
C361        C368   1.451       .  S
C362        C363   1.417       .  A
C363        C364   1.411       .  A
C363        C366   1.451       .  S
C364        C367   1.451       .  S
C365        N372   1.157       .  T
C366        N371   1.157       .  T
C367        N369   1.157       .  T
C368        N370   1.157       .  T
C373        C374   1.414       .  A
C373        C378   1.413       .  A
C374        C375   1.411       .  A
C374        C379   1.452       .  S
C375        C376   1.414       .  A
C375        C382   1.451       .  S
C376        C377   1.415       .  A
C377        C378   1.409       .  A
C377        C380   1.452       .  S
C378        C381   1.452       .  S
C379        N386   1.157       .  T
C380        N385   1.157       .  T
C381        N383   1.157   1_556  T
C382        N384   1.157       .  T
C387        C388   1.413   1_556  A
C387        C392   1.413       .  A
C388        C389   1.408   1_554  A
C388        C393   1.451       .  S
C389        C390   1.411       .  A
C389        C396   1.451   1_556  S
C390        C391   1.412       .  A
C391        C392   1.409       .  A
C391        C394   1.452       .  S
C392        C395   1.451       .  S
C393        N400   1.157       .  T
C394        N399   1.157       .  T
C395        N397   1.157       .  T
C396        N398   1.157       .  T
C401        C402   1.412       .  A
C401        C406   1.413       .  A
C402        C403   1.410       .  A
C402        C407   1.451   1_655  S
C403        C404   1.415       .  A
C403        C410   1.452       .  S
C404        C405   1.413       .  A
C405        C406   1.410       .  A
C405        C408   1.451       .  S
C406        C409   1.451       .  S
C407        N414   1.157       .  T
C408        N413   1.157       .  T
C409        N411   1.157       .  T
C410        N412   1.157   1_655  T
C415        C416   1.412       .  A
C415        C420   1.412       .  A
C416        C417   1.408       .  A
C416        C421   1.451       .  S
C417        C418   1.411       .  A
C417        C424   1.451       .  S
C418        C419   1.411       .  A
C419        C420   1.407       .  A
C419        C422   1.452   1_565  S
C420        C423   1.451   1_565  S
C421        N428   1.157       .  T
C422        N427   1.157       .  T
C423        N425   1.157       .  T
C424        N426   1.157       .  T
