geometry optimzed in LAMMPS
_audit_creation_date              2020-12-01 
_audit_creation_method            'lammps2cif' 
_symmetry_space_group_name_H-M    'P1' 
_symmetry_Int_Tables_number       1 
_symmetry_cell_setting            triclinic 
loop_ 
_symmetry_equiv_pos_as_xyz 
  x,y,z 
_cell_length_a                    33.17323067 
_cell_length_b                    33.1479587317321 
_cell_length_c                    44.27094187241825 
_cell_angle_alpha                 89.84411339338946 
_cell_angle_beta                  90.415924086859 
_cell_angle_gamma                 89.78415190794786 
loop_ 
_atom_site_label 
_atom_site_type_symbol 
_atom_site_fract_x 
_atom_site_fract_y 
_atom_site_fract_z 
_atom_site_charge 
O1          O  0.27315131  0.97052220  0.00489589    -0.73700
O2          O  0.39371316  0.96713931  0.00290306    -0.74700
O3          O  0.33487546  0.96922592  0.04911449    -0.63300
O4          O  0.33138661  0.96876411  0.45873171    -0.71700
O5          O  0.33328841  0.03546574  0.45849135    -0.71300
O6          O  0.33637813  0.03611166  0.04910177    -0.62500
O7          O  0.39564614  0.03388994  0.50274025    -0.75000
O8          O  0.27428686  0.03746084  0.50500832    -0.73800
Cu9        Cu  0.33329365  0.96664733  0.00393783     1.04600
Cu10       Cu  0.33501382  0.03810553  0.50380918     1.04300
C11         C  0.25465378  0.00435097  0.00553929     0.92500
C12         C  0.41390216  0.99982006  0.50248814     0.91600
C13         C  0.33587888  0.00261426  0.06342943     0.83800
C14         C  0.33135711  0.00211264  0.44417976     0.90100
O15         O  0.32806762  0.96728315  0.20749434    -0.73700
O16         O  0.33062644  0.96470935  0.29789109    -0.74700
O17         O  0.26900887  0.96580328  0.25297293    -0.63300
O18         O  0.38981563  0.96614471  0.25175790    -0.71700
O19         O  0.38956073  0.03291803  0.25296592    -0.71300
O20         O  0.26855866  0.03269665  0.25379691    -0.62500
O21         O  0.32999963  0.03136620  0.29876870    -0.75000
O22         O  0.32785060  0.03418616  0.20833244    -0.73800
Cu23       Cu  0.32940894  0.96366987  0.25256786     1.04600
Cu24       Cu  0.32899889  0.03511806  0.25356410     1.04300
C25         C  0.32735553  0.00111475  0.19361470     0.92500
C26         C  0.33054575  0.99760584  0.31280236     0.91600
C27         C  0.24967242  0.99919623  0.25280367     0.83800
C28         C  0.40892251  0.99952115  0.25213166     0.90100
O29         O  0.03740594  0.67098074  0.45643555    -0.73700
O30         O  0.03556683  0.66844122  0.04731465    -0.74700
O31         O  0.03533301  0.60917197  0.50119299    -0.63300
O32         O  0.03757720  0.73025417  0.50288333    -0.71700
O33         O  0.97068088  0.73143114  0.50043919    -0.71300
O34         O  0.96846805  0.61063313  0.50143311    -0.62500
O35         O  0.96878805  0.67126425  0.04622077    -0.75000
O36         O  0.97053523  0.67063006  0.45571628    -0.73800
Cu37       Cu  0.03884960  0.66969276  0.50198600     1.04600
Cu38       Cu  0.96732955  0.67109192  0.50091156     1.04300
C39         C  0.00409134  0.67042730  0.44173916     0.92500
C40         C  0.00187745  0.66975087  0.06112853     0.91600
C41         C  0.00153061  0.59077947  0.50158873     0.83800
C42         C  0.00438900  0.74986146  0.50152830     0.90100
O43         O  0.96904962  0.60466111  0.25316419    -0.73700
O44         O  0.96931590  0.72544887  0.24940051    -0.74700
O45         O  0.96847549  0.66284254  0.20614611    -0.63300
O46         O  0.97018648  0.66761814  0.29678235    -0.71700
O47         O  0.03705997  0.66824651  0.29668853    -0.71300
O48         O  0.03531330  0.66168642  0.20611012    -0.62500
O49         O  0.03619065  0.72528872  0.24895632    -0.75000
O50         O  0.03592175  0.60406964  0.25385726    -0.73800
Cu51       Cu  0.96695396  0.66511737  0.25143689     1.04600
Cu52       Cu  0.03847222  0.66475018  0.25140890     1.04300
C53         C  0.00236218  0.58521800  0.25404828     0.92500
C54         C  0.00268359  0.74445184  0.24822176     0.91600
C55         C  0.00172630  0.66145545  0.19178466     0.83800
C56         C  0.00380074  0.66932484  0.31103234     0.90100
O57         O  0.66821867  0.96251782  0.45019358    -0.73700
O58         O  0.66797404  0.96496210  0.04092275    -0.74700
O59         O  0.60740836  0.96423217  0.99511117    -0.63300
O60         O  0.72866714  0.96323999  0.49610740    -0.71700
O61         O  0.72847995  0.03020484  0.49557909    -0.71300
O62         O  0.60775805  0.03107291  0.99445023    -0.62500
O63         O  0.66833642  0.03175875  0.03999472    -0.75000
O64         O  0.66829206  0.02938806  0.44967646    -0.73800
Cu65       Cu  0.66799900  0.96135456  0.99559089     1.04600
Cu66       Cu  0.66816727  0.03286169  0.49481548     1.04300
C67         C  0.66870133  0.99581996  0.43558736     0.92500
C68         C  0.66890247  0.99867693  0.05485065     0.91600
C69         C  0.58838585  0.99783565  0.49452692     0.83800
C70         C  0.74762043  0.99673015  0.99664043     0.90100
O71         O  0.66199024  0.03176188  0.29144123    -0.73700
O72         O  0.66613412  0.03593914  0.20082930    -0.74700
O73         O  0.60342650  0.03523752  0.24454271    -0.63300
O74         O  0.72441527  0.03282752  0.24838658    -0.71700
O75         O  0.72323993  0.96596385  0.24518317    -0.71300
O76         O  0.60242186  0.96849769  0.24415530    -0.62500
O77         O  0.66328320  0.96922730  0.19953453    -0.75000
O78         O  0.66246992  0.96492487  0.28983154    -0.73800
Cu79       Cu  0.66400265  0.03631065  0.24629261     1.04600
Cu80       Cu  0.66279924  0.96486575  0.24457622     1.04300
C81         C  0.66180862  0.99764022  0.30497198     0.92500
C82         C  0.66496262  0.00309922  0.18578500     0.91600
C83         C  0.58365834  0.00225572  0.24431092     0.83800
C84         C  0.74279607  0.99894130  0.24742832     0.90100
O85         O  0.00040770  0.06344431  0.47706205    -0.73700
O86         O  0.00328672  0.94273022  0.47821150    -0.74700
O87         O  0.94136256  0.00125092  0.47618936    -0.63300
O88         O  0.06217626  0.00392216  0.47915390    -0.71700
O89         O  0.06097015  0.00472229  0.02929552    -0.71300
O90         O  0.93990352  0.00269863  0.02630348    -0.62500
O91         O  0.00179472  0.94316338  0.02831658    -0.75000
O92         O  0.99969860  0.06426785  0.02719584    -0.73800
Cu93       Cu  0.00181167  0.00293446  0.47592509     1.04600
Cu94       Cu  0.00043023  0.00380566  0.02954603     1.04300
C95         C  0.00044998  0.08294394  0.00192543     0.92500
C96         C  0.00343669  0.92384990  0.00340473     0.91600
C97         C  0.92158219  0.00080152  0.00084306     0.83800
C98         C  0.08062983  0.00400821  0.00459851     0.90100
O99         O  0.05661738  0.00046738  0.27495480    -0.73700
O100        O  0.93580221  0.99507987  0.27382143    -0.74700
O101        O  0.99949285  0.93703139  0.27378084    -0.63300
O102        O  0.99339721  0.05810021  0.27487191    -0.71700
O103        O  0.99631715  0.05857862  0.22480039    -0.71300
O104        O  0.99686483  0.93792740  0.22363926    -0.62500
O105        O  0.93621099  0.99824912  0.22381797    -0.75000
O106        O  0.05695017  0.99822781  0.22480959    -0.73800
Cu107      Cu  0.99627269  0.99759656  0.27614663     1.04600
Cu108      Cu  0.99656391  0.99828913  0.22254058     1.04300
C109        C  0.07577309  0.00000580  0.25003613     0.92500
C110        C  0.91683740  0.99602816  0.24858338     0.91600
C111        C  0.99919695  0.91846168  0.24850893     0.83800
C112        C  0.99424065  0.07741531  0.24987207     0.90100
O113        O  0.03302597  0.39693919  0.49937273    -0.73700
O114        O  0.03336645  0.27613310  0.50157630    -0.74700
O115        O  0.03552658  0.33510496  0.45520837    -0.63300
O116        O  0.03067365  0.33794934  0.04569390    -0.71700
O117        O  0.96385702  0.33664298  0.04362240    -0.71300
O118        O  0.96882119  0.33611488  0.45283694    -0.62500
O119        O  0.96656486  0.27605683  0.49815922    -0.75000
O120        O  0.96618591  0.39742913  0.49812509    -0.73800
Cu121      Cu  0.03542489  0.33655836  0.50056391     1.04600
Cu122      Cu  0.96398287  0.33661035  0.49812122     1.04300
C123        C  0.99971644  0.41634667  0.49845524     0.92500
C124        C  0.00009183  0.25702726  0.49964648     0.91600
C125        C  0.00297766  0.33498123  0.43964140     0.83800
C126        C  0.99661084  0.33783501  0.05898003     0.90100
O127        O  0.03264758  0.39099051  0.24988325    -0.73700
O128        O  0.03034831  0.26993972  0.24743934    -0.74700
O129        O  0.02946261  0.33220474  0.20339146    -0.63300
O130        O  0.03354126  0.32857015  0.29395404    -0.71700
O131        O  0.96674459  0.33075249  0.29518400    -0.71300
O132        O  0.96260525  0.33199654  0.20442637    -0.62500
O133        O  0.96352983  0.27117502  0.24967615    -0.75000
O134        O  0.96577518  0.39222203  0.25001213    -0.73800
Cu135      Cu  0.03381881  0.33039514  0.24862807     1.04600
Cu136      Cu  0.96232449  0.33164401  0.24988783     1.04300
C137        C  0.99950280  0.41075043  0.24990325     0.92500
C138        C  0.99661994  0.25148534  0.24818296     0.91600
C139        C  0.99549967  0.33212501  0.18957757     0.83800
C140        C  0.00073158  0.32873984  0.30890053     0.90100
C141        C  0.00435323  0.33230474  0.40619288    -0.06900
C142        C  0.97335194  0.31141639  0.39120210    -0.18000
C143        C  0.97268374  0.30774524  0.35971929     0.10300
C144        C  0.00229875  0.32745937  0.34231849    -0.06800
C145        C  0.03371897  0.34765273  0.35723938    -0.18000
C146        C  0.03546995  0.34967214  0.38878875     0.10400
S147        S  0.93478080  0.27547112  0.34336177    -0.33000
S148        S  0.07702860  0.37669730  0.40522866    -0.33000
H149        H  0.09376886  0.34166797  0.41834176     0.28400
H150        H  0.96023791  0.25973632  0.32096779     0.28400
H151        H  0.94998267  0.29673131  0.40417801     0.18900
H152        H  0.05689030  0.36256719  0.34420053     0.19000
C153        C  0.99518538  0.33843925  0.09237659    -0.06900
C154        C  0.96710448  0.31385902  0.10718032    -0.18000
C155        C  0.96684485  0.31052188  0.13875073     0.10300
C156        C  0.99467176  0.33304374  0.15617223    -0.06800
C157        C  0.02236221  0.35797162  0.14134164    -0.18000
C158        C  0.02255516  0.36136759  0.10985072     0.10400
S159        S  0.93192383  0.27523279  0.15512210    -0.33000
S160        S  0.05713422  0.39702382  0.09352156    -0.33000
H161        H  0.03054966  0.40998039  0.07051606     0.28400
H162        H  0.95810659  0.26196359  0.17823123     0.28400
H163        H  0.94624571  0.29584247  0.09401336     0.18900
H164        H  0.04336014  0.37589591  0.15445967     0.19000
C165        C  0.99360610  0.12190783  0.24964031    -0.06900
C166        C  0.01916679  0.14202459  0.22951431    -0.18000
C167        C  0.02029568  0.18413585  0.22814422     0.10300
C168        C  0.99571707  0.20700983  0.24767824    -0.06800
C169        C  0.96978628  0.18691615  0.26757533    -0.18000
C170        C  0.96830008  0.14475149  0.26867786     0.10400
S171        S  0.05263345  0.20658411  0.20021076    -0.33000
S172        S  0.93245281  0.12213402  0.29398509    -0.33000
H173        H  0.92137219  0.09084605  0.27421456     0.28400
H174        H  0.02663012  0.23888940  0.19315649     0.28400
H175        H  0.03843913  0.12475869  0.21465069     0.18900
H176        H  0.95049291  0.20419309  0.28239421     0.19000
C177        C  0.00156261  0.12744791  0.00128455    -0.06900
C178        C  0.97757182  0.14796241  0.47995767    -0.18000
C179        C  0.97716198  0.19012360  0.47848861     0.10300
C180        C  0.00057167  0.21255772  0.49922991    -0.06800
C181        C  0.02524174  0.19207093  0.02010792    -0.18000
C182        C  0.02633425  0.14990718  0.02114704     0.10400
S183        S  0.94775383  0.21338415  0.44874375    -0.33000
S184        S  0.06142246  0.12669714  0.04723596    -0.33000
H185        H  0.07281647  0.09577801  0.02733059     0.28400
H186        H  0.97581434  0.24407265  0.44286976     0.28400
H187        H  0.95911864  0.13100823  0.46420539     0.18900
H188        H  0.04392496  0.20905811  0.03569093     0.19000
C189        C  0.78706456  0.99770804  0.24862907    -0.06900
C190        C  0.80756914  0.98005628  0.22448318    -0.18000
C191        C  0.84967538  0.97832248  0.22405707     0.10300
C192        C  0.87217192  0.99522109  0.24820807    -0.06800
C193        C  0.85138069  0.01252832  0.27256482    -0.18000
C194        C  0.80920810  0.01366733  0.27313085     0.10400
S195        S  0.87242760  0.95273810  0.19256852    -0.33000
S196        S  0.78544760  0.03485047  0.30603524    -0.33000
H197        H  0.75231666  0.00853324  0.30588457     0.28400
H198        H  0.90104289  0.93195308  0.21040186     0.28400
H199        H  0.79057358  0.96738682  0.20579640     0.18900
H200        H  0.86807162  0.02540138  0.29131450     0.19000
C201        C  0.66892949  0.99557188  0.40215212    -0.06900
C202        C  0.64850177  0.96462710  0.38683371    -0.18000
C203        C  0.64471866  0.96483748  0.35530317     0.10300
C204        C  0.66240003  0.99637284  0.33838629    -0.06800
C205        C  0.68317172  0.02699318  0.35373292    -0.18000
C206        C  0.68731305  0.02654941  0.38514285     0.10400
S207        S  0.61510763  0.92525668  0.33837632    -0.33000
S208        S  0.71855737  0.06506868  0.40179228    -0.33000
H209        H  0.73682842  0.03906320  0.42308062     0.28400
H210        H  0.59579266  0.95069402  0.31722313     0.28400
H211        H  0.63405494  0.94080636  0.39957931     0.18900
H212        H  0.69768336  0.05083993  0.34105467     0.19000
C213        C  0.66627476  0.00348665  0.15227575    -0.06900
C214        C  0.68248451  0.96956997  0.13766300    -0.18000
C215        C  0.68517358  0.96765006  0.10620286     0.10300
C216        C  0.67006819  0.99987925  0.08835706    -0.06800
C217        C  0.65472160  0.03421674  0.10295687    -0.18000
C218        C  0.65237979  0.03630420  0.13446927     0.10400
S219        S  0.71020589  0.92412410  0.09063993    -0.33000
S220        S  0.62929080  0.08078772  0.15014007    -0.33000
H221        H  0.60487535  0.05912499  0.17030456     0.28400
H222        H  0.73256822  0.94652662  0.06956879     0.28400
H223        H  0.69421687  0.94456274  0.15090547     0.18900
H224        H  0.64310500  0.05925931  0.08970197     0.19000
C225        C  0.79202093  0.99688478  0.99882921    -0.06900
C226        C  0.81423299  0.97105416  0.48016225    -0.18000
C227        C  0.85645134  0.97117669  0.48068087     0.10300
C228        C  0.87715237  0.99813325  0.00001689    -0.06800
C229        C  0.85488698  0.02325877  0.01916224    -0.18000
C230        C  0.81273556  0.02270013  0.01896895     0.10400
S231        S  0.88203546  0.93515356  0.45707177    -0.33000
S232        S  0.78721361  0.05453284  0.04576750    -0.33000
H233        H  0.75681654  0.02646164  0.05240821     0.28400
H234        H  0.91269322  0.92650903  0.47824666     0.28400
H235        H  0.79857930  0.95070211  0.46499315     0.18900
H236        H  0.87046985  0.04356154  0.03440875     0.19000
C237        C  0.00031982  0.45537631  0.25016500    -0.06900
C238        C  0.02868279  0.47486827  0.26870880    -0.18000
C239        C  0.02938608  0.51700031  0.27118304     0.10300
C240        C  0.00171597  0.54056391  0.25419941    -0.06800
C241        C  0.97341044  0.52102707  0.23563970    -0.18000
C242        C  0.97280215  0.47896232  0.23308049     0.10400
S243        S  0.06481101  0.53858235  0.29759245    -0.33000
S244        S  0.93788592  0.45750422  0.20621177    -0.33000
H245        H  0.96434440  0.42707446  0.19631695     0.28400
H246        H  0.03880387  0.56948052  0.30734219     0.28400
H247        H  0.04965099  0.45707833  0.28214634     0.18900
H248        H  0.95250540  0.53876169  0.22210323     0.19000
C249        C  0.00257849  0.78897397  0.24656071    -0.06900
C250        C  0.03142324  0.81026030  0.26346671    -0.18000
C251        C  0.03144701  0.85245560  0.26410214     0.10300
C252        C  0.00160487  0.87410413  0.24784933    -0.06800
C253        C  0.97346052  0.85295377  0.23028270    -0.18000
C254        C  0.97380077  0.81078122  0.22924399     0.10400
S255        S  0.07107900  0.87687528  0.28522565    -0.33000
S256        S  0.93776838  0.78681655  0.20450434    -0.33000
H257        H  0.96440649  0.75640842  0.19488589     0.28400
H258        H  0.07564660  0.90925416  0.26495640     0.28400
H259        H  0.05401521  0.79390459  0.27646570     0.18900
H260        H  0.95097860  0.86944409  0.21725976     0.19000
C261        C  0.00082733  0.54618669  0.50169956    -0.06900
C262        C  0.02885102  0.52553461  0.48384870    -0.18000
C263        C  0.02881784  0.48331147  0.48201080     0.10300
C264        C  0.00004007  0.46101133  0.49843316    -0.06800
C265        C  0.97180373  0.48170429  0.01613855    -0.18000
C266        C  0.97237530  0.52382634  0.01842198     0.10400
S267        S  0.06423900  0.45858219  0.45732390    -0.33000
S268        S  0.93775573  0.54691818  0.04447786    -0.33000
H269        H  0.96510436  0.57625968  0.05481219     0.28400
H270        H  0.08459843  0.49340894  0.44769403     0.28400
H271        H  0.05034716  0.54271142  0.47079497     0.18900
H272        H  0.95010226  0.46481231  0.02926025     0.19000
C273        C  0.00422835  0.66947770  0.40832014    -0.06900
C274        C  0.03190555  0.69353201  0.39261973    -0.18000
C275        C  0.03169551  0.69523283  0.36095602     0.10300
C276        C  0.00394626  0.67146484  0.34441081    -0.06800
C277        C  0.97619479  0.64769312  0.36015018    -0.18000
C278        C  0.97635813  0.64601161  0.39170146     0.10400
S279        S  0.06586070  0.73003445  0.34317056    -0.33000
S280        S  0.94175792  0.61143616  0.40923611    -0.33000
H281        H  0.96914669  0.59829042  0.43164378     0.28400
H282        H  0.03895149  0.74139077  0.31992391     0.28400
H283        H  0.05295653  0.71216664  0.40511580     0.18900
H284        H  0.95508577  0.62903708  0.34772764     0.19000
C285        C  0.00134804  0.66843711  0.09457949    -0.06900
C286        C  0.03090407  0.64536480  0.10966115    -0.18000
C287        C  0.03086865  0.64110850  0.14113320     0.10300
C288        C  0.00118381  0.66115719  0.15833106    -0.06800
C289        C  0.97132255  0.68378646  0.14323415    -0.18000
C290        C  0.97142149  0.68815779  0.11178256     0.10400
S291        S  0.06825218  0.60798934  0.15767578    -0.33000
S292        S  0.93410143  0.72146509  0.09538157    -0.33000
H293        H  0.96066914  0.73900202  0.07450399     0.28400
H294        H  0.04234978  0.59197732  0.17967674     0.28400
H295        H  0.05353937  0.62949585  0.09678303     0.18900
H296        H  0.94868060  0.69964580  0.15610307     0.19000
C297        C  0.00495858  0.79423103  0.50116701    -0.06900
C298        C  0.02673930  0.81450385  0.52370488    -0.18000
C299        C  0.02718955  0.85669942  0.52495472     0.10300
C300        C  0.00501829  0.87931227  0.00330897    -0.06800
C301        C  0.98378014  0.85885066  0.98050881    -0.18000
C302        C  0.98363360  0.81675357  0.97913918     0.10400
S303        S  0.05768239  0.87956752  0.55407341    -0.33000
S304        S  0.95668470  0.79364432  0.94820608    -0.36000
H305        H  0.98422927  0.76176462  0.94424081     0.28400
H306        H  0.07213610  0.91094845  0.53571569     0.28400
H307        H  0.04341442  0.79731353  0.54052879     0.18900
H308        H  0.96711276  0.87577961  0.96354689     0.19000
C309        C  0.53886997  0.00251136  0.24553455    -0.06900
C310        C  0.51962258  0.96865170  0.25793662    -0.18000
C311        C  0.47776129  0.96723577  0.26126167     0.10300
C312        C  0.45366031  0.99983941  0.25088229    -0.06800
C313        C  0.47280877  0.03353246  0.23812861    -0.18000
C314        C  0.51482032  0.03540906  0.23559958     0.10400
S315        S  0.45762264  0.92384044  0.28050816    -0.33000
S316        S  0.53551205  0.07979577  0.21820621    -0.33000
H317        H  0.55221792  0.09361633  0.24558441     0.28400
H318        H  0.43102480  0.94646764  0.29847171     0.28400
H319        H  0.53746120  0.94343782  0.26621796     0.18900
H320        H  0.45489054  0.05864705  0.22977475     0.19000
C321        C  0.12009007  0.00116326  0.25032254    -0.06900
C322        C  0.14114734  0.97200191  0.23381101    -0.18000
C323        C  0.18328858  0.97101705  0.23378869     0.10300
C324        C  0.20514668  0.99930493  0.25126494    -0.06800
C325        C  0.18393270  0.02891064  0.26737529    -0.18000
C326        C  0.14178064  0.03039368  0.26683098     0.10400
S327        S  0.20712896  0.93422575  0.20981861    -0.33000
S328        S  0.11749915  0.07118718  0.28662530    -0.33000
H329        H  0.08593760  0.07630888  0.26555056     0.28400
H330        H  0.23696044  0.96074932  0.19927691     0.28400
H331        H  0.12459830  0.94986818  0.22072367     0.18900
H332        H  0.20031089  0.05119932  0.28041842     0.19000
C333        C  0.45861161  0.99845576  0.50079722    -0.06900
C334        C  0.47843365  0.02972023  0.48548088    -0.18000
C335        C  0.52030882  0.02947288  0.48184812     0.10300
C336        C  0.54367348  0.99811675  0.49495195    -0.06800
C337        C  0.52392037  0.96682082  0.01019824    -0.18000
C338        C  0.48184161  0.96641489  0.01315525     0.10400
S339        S  0.54157411  0.06882622  0.45879262    -0.33000
S340        S  0.45895206  0.92568316  0.03406193    -0.33000
H341        H  0.49397404  0.90226790  0.03838735     0.28400
H342        H  0.56939220  0.04330344  0.44434625     0.28400
H343        H  0.46099595  0.05396103  0.47525853     0.18900
H344        H  0.54172476  0.94295448  0.02049190     0.19000
C345        C  0.33036778  0.99732649  0.34645353    -0.06900
C346        C  0.31979205  0.03319263  0.36139704    -0.18000
C347        C  0.31852925  0.03549484  0.39290742     0.10300
C348        C  0.32972178  0.00153480  0.41059203    -0.06800
C349        C  0.34030254  0.96565002  0.39570017    -0.18000
C350        C  0.34026908  0.96295367  0.36416477     0.10400
S351        S  0.30052125  0.08223062  0.40866626    -0.33000
S352        S  0.35443914  0.91501671  0.34834715    -0.33000
H353        H  0.31598658  0.90872836  0.33558387     0.28400
H354        H  0.27382023  0.06324635  0.42873065     0.28400
H355        H  0.31129277  0.05969352  0.34842928     0.18900
H356        H  0.34891677  0.93922509  0.40871721     0.19000
C357        C  0.33514811  0.00254235  0.09679480    -0.06900
C358        C  0.31302000  0.03270898  0.11159332    -0.18000
C359        C  0.30842745  0.03221687  0.14298876     0.10300
C360        C  0.32754861  0.00164270  0.16028807    -0.06800
C361        C  0.34949630  0.97147055  0.14546479    -0.18000
C362        C  0.35387885  0.97183007  0.11415044     0.10400
S363        S  0.27583008  0.06987940  0.15924344    -0.33000
S364        S  0.38602489  0.93380617  0.09805280    -0.33000
H365        H  0.40415567  0.96086129  0.07780848     0.28400
H366        H  0.25890712  0.04369780  0.18075113     0.28400
H367        H  0.29790092  0.05603388  0.09852234     0.18900
H368        H  0.36474858  0.94817016  0.15848763     0.19000
C369        C  0.21017971  0.00462323  0.00638363    -0.06900
C370        C  0.18944517  0.97754037  0.48764554    -0.18000
C371        C  0.14735752  0.97617249  0.48710708     0.10300
C372        C  0.12507673  0.00291074  0.00542376    -0.06800
C373        C  0.14575717  0.02939589  0.02472073    -0.18000
C374        C  0.18797004  0.03044841  0.02548694     0.10400
S375        S  0.12408524  0.93856253  0.46339666    -0.33000
S376        S  0.21154984  0.06414722  0.05212018    -0.33000
H377        H  0.24306017  0.03748940  0.05988268     0.28400
H378        H  0.09245421  0.92984403  0.48330076     0.28400
H379        H  0.20620822  0.95717111  0.47327390     0.18900
H380        H  0.12895721  0.04942029  0.03929588     0.19000
O381        O  0.27315078  0.97052093  0.50490052    -0.73700
O382        O  0.39370967  0.96711809  0.50289455    -0.74700
O383        O  0.33488285  0.96921460  0.54911365    -0.63300
O384        O  0.33139845  0.96877289  0.95873176    -0.71700
O385        O  0.33328656  0.03547476  0.95849124    -0.71300
O386        O  0.33638845  0.03610070  0.54909991    -0.62500
O387        O  0.39563967  0.03391161  0.00274525    -0.75000
O388        O  0.27428029  0.03746216  0.00500753    -0.73800
Cu389      Cu  0.33329120  0.96663669  0.50393689     1.04600
Cu390      Cu  0.33500689  0.03811621  0.00381034     1.04300
C391        C  0.25465687  0.00435167  0.50554087     0.92500
C392        C  0.41390082  0.99984447  0.00249767     0.91600
C393        C  0.33588871  0.00260359  0.56342773     0.83800
C394        C  0.33136494  0.00212109  0.94417930     0.90100
O395        O  0.32806002  0.96726857  0.70749121    -0.73700
O396        O  0.33060848  0.96470405  0.79789008    -0.74700
O397        O  0.26899299  0.96579788  0.75296457    -0.63300
O398        O  0.38980127  0.96613208  0.75175909    -0.71700
O399        O  0.38954828  0.03290547  0.75295987    -0.71300
O400        O  0.26854848  0.03269203  0.75379500    -0.62500
O401        O  0.32999320  0.03136122  0.79876427    -0.75000
O402        O  0.32783749  0.03417192  0.70832736    -0.73800
Cu403      Cu  0.32939431  0.96366007  0.75256532     1.04600
Cu404      Cu  0.32898805  0.03510871  0.75355946     1.04300
C405        C  0.32734769  0.00109944  0.69361067     0.92500
C406        C  0.33053744  0.99760222  0.81279978     0.91600
C407        C  0.24966025  0.99919324  0.75279806     0.83800
C408        C  0.40890916  0.99950801  0.75213002     0.90100
O409        O  0.03738917  0.67099464  0.95643362    -0.73700
O410        O  0.03557880  0.66844141  0.54731591    -0.74700
O411        O  0.03531675  0.60917871  0.00118641    -0.63300
O412        O  0.03756524  0.73025986  0.00288735    -0.71700
O413        O  0.97066884  0.73143905  0.00044489    -0.71300
O414        O  0.96845185  0.61064066  0.00142893    -0.62500
O415        O  0.96879998  0.67126202  0.54621998    -0.75000
O416        O  0.97051847  0.67064482  0.95571608    -0.73800
Cu417      Cu  0.03883527  0.66969900  0.00198439     1.04600
Cu418      Cu  0.96731524  0.67109995  0.00091207     1.04300
C419        C  0.00407392  0.67044430  0.94173793     0.92500
C420        C  0.00188863  0.66975021  0.56112870     0.91600
C421        C  0.00151419  0.59078656  0.00158244     0.83800
C422        C  0.00437758  0.74986820  0.00153511     0.90100
O423        O  0.96904779  0.60466195  0.75316885    -0.73700
O424        O  0.96931286  0.72544902  0.74938810    -0.74700
O425        O  0.96847710  0.66283257  0.70614365    -0.63300
O426        O  0.97017850  0.66762967  0.79677843    -0.71700
O427        O  0.03705206  0.66825878  0.79668909    -0.71300
O428        O  0.03531495  0.66167780  0.70611066    -0.62500
O429        O  0.03618771  0.72528891  0.74894788    -0.75000
O430        O  0.03591974  0.60407147  0.75386478    -0.73800
Cu431      Cu  0.96695124  0.66511789  0.75143340     1.04600
Cu432      Cu  0.03846950  0.66475148  0.75140931     1.04300
C433        C  0.00236054  0.58521922  0.75405578     0.92500
C434        C  0.00268065  0.74445166  0.74820763     0.91600
C435        C  0.00172899  0.66144474  0.69178379     0.83800
C436        C  0.00379089  0.66933969  0.81103053     0.90100
O437        O  0.66820349  0.96252465  0.95019698    -0.73700
O438        O  0.66797168  0.96494941  0.54091825    -0.74700
O439        O  0.60741494  0.96421083  0.49510034    -0.63300
O440        O  0.72866009  0.96323822  0.99610654    -0.71700
O441        O  0.72848249  0.03020322  0.99557880    -0.71300
O442        O  0.60775494  0.03105157  0.49444587    -0.62500
O443        O  0.66832957  0.03174566  0.53999361    -0.75000
O444        O  0.66829177  0.02939483  0.94967745    -0.73800
Cu445      Cu  0.66800633  0.96134489  0.49558660     1.04600
Cu446      Cu  0.66817068  0.03287152  0.99481670     1.04300
C447        C  0.66869247  0.99582574  0.93558944     0.92500
C448        C  0.66889485  0.99866271  0.55484824     0.91600
C449        C  0.58838427  0.99785992  0.99453703     0.83800
C450        C  0.74762293  0.99673460  0.49664023     0.90100
O451        O  0.66198707  0.03175967  0.79144042    -0.73700
O452        O  0.66611225  0.03592788  0.70082710    -0.74700
O453        O  0.60341419  0.03522983  0.74454805    -0.63300
O454        O  0.72440258  0.03282144  0.74837640    -0.71700
O455        O  0.72322763  0.96595739  0.74517756    -0.71300
O456        O  0.60240931  0.96849020  0.74416305    -0.62500
O457        O  0.66326130  0.96921631  0.69953594    -0.75000
O458        O  0.66246421  0.96492234  0.78983416    -0.73800
Cu459      Cu  0.66399013  0.03630374  0.74629068     1.04600
Cu460      Cu  0.66278628  0.96485882  0.74457808     1.04300
C461        C  0.66180499  0.99763927  0.80497297     0.92500
C462        C  0.66493871  0.00308690  0.68578427     0.91600
C463        C  0.58364585  0.00224819  0.74431876     0.83800
C464        C  0.74278380  0.99893557  0.74741702     0.90100
O465        O  0.00040079  0.06344814  0.97706962    -0.73700
O466        O  0.00328453  0.94273537  0.97822452    -0.74700
O467        O  0.94135849  0.00125151  0.97620029    -0.63300
O468        O  0.06217160  0.00392858  0.97916405    -0.71700
O469        O  0.06097332  0.00471338  0.52928541    -0.71300
O470        O  0.93990734  0.00269558  0.52629265    -0.62500
O471        O  0.00179576  0.94315661  0.52830351    -0.75000
O472        O  0.99970422  0.06426004  0.52718829    -0.73800
Cu473      Cu  0.00180716  0.00293858  0.97593566     1.04600
Cu474      Cu  0.00043372  0.00379853  0.52953550     1.04300
C475        C  0.00045581  0.08293813  0.50191883     0.92500
C476        C  0.00343852  0.92384386  0.50339141     0.91600
C477        C  0.92158605  0.00080254  0.50083210     0.83800
C478        C  0.08063363  0.00400156  0.50458870     0.90100
O479        O  0.05660321  0.00045663  0.77493671    -0.73700
O480        O  0.93578943  0.99507736  0.77379574    -0.74700
O481        O  0.99947632  0.93702613  0.77375251    -0.63300
O482        O  0.99338890  0.05809366  0.77485696    -0.71700
O483        O  0.99630780  0.05858222  0.72478547    -0.71300
O484        O  0.99685709  0.93792958  0.72361074    -0.62500
O485        O  0.93620012  0.99825051  0.72379232    -0.75000
O486        O  0.05694134  0.99823314  0.72479142    -0.73800
Cu487      Cu  0.99625915  0.99758984  0.77612455     1.04600
Cu488      Cu  0.99655458  0.99829248  0.72251855     1.04300
C489        C  0.07576207  0.00000456  0.75001935     0.92500
C490        C  0.91682561  0.99602819  0.74855737     0.91600
C491        C  0.99918603  0.91846033  0.74847909     0.83800
C492        C  0.99423501  0.07741400  0.74985952     0.90100
O493        O  0.03302820  0.39694873  0.99937553    -0.73700
O494        O  0.03337934  0.27614021  0.00157267    -0.74700
O495        O  0.03553712  0.33511825  0.95520851    -0.63300
O496        O  0.03066501  0.33794646  0.54569445    -0.71700
O497        O  0.96384821  0.33664158  0.54362300    -0.71300
O498        O  0.96883167  0.33612133  0.95283601    -0.62500
O499        O  0.96657772  0.27606165  0.99815701    -0.75000
O500        O  0.96618811  0.39743226  0.99812588    -0.73800
Cu501      Cu  0.03543357  0.33656687  0.00056368     1.04600
Cu502      Cu  0.96399159  0.33661410  0.99812050     1.04300
C503        C  0.99971658  0.41635301  0.99845704     0.92500
C504        C  0.00010520  0.25703313  0.99964301     0.91600
C505        C  0.00298880  0.33499191  0.93964104     0.83800
C506        C  0.99660201  0.33783421  0.55898050     0.90100
O507        O  0.03265606  0.39099332  0.74988121    -0.73700
O508        O  0.03036477  0.26994124  0.74743890    -0.74700
O509        O  0.02946956  0.33220678  0.70338943    -0.63300
O510        O  0.03355852  0.32857411  0.79395305    -0.71700
O511        O  0.96676178  0.33075149  0.79518556    -0.71300
O512        O  0.96261236  0.33199488  0.70442897    -0.62500
O513        O  0.96354655  0.27117346  0.74967887    -0.75000
O514        O  0.96578376  0.39222017  0.75001485    -0.73800
Cu515      Cu  0.03383131  0.33039777  0.74862646     1.04600
Cu516      Cu  0.96233713  0.33164222  0.74989028     1.04300
C517        C  0.99950995  0.41075103  0.74990416     0.92500
C518        C  0.99663734  0.25148514  0.74818461     0.91600
C519        C  0.99550482  0.33212578  0.68957787     0.83800
C520        C  0.00074975  0.32874205  0.80890077     0.90100
C521        C  0.00436632  0.33231533  0.90619265    -0.06900
C522        C  0.97336911  0.31142138  0.89120180    -0.18000
C523        C  0.97270427  0.30774653  0.85971936     0.10300
C524        C  0.00231762  0.32746319  0.84231863    -0.06800
C525        C  0.03373395  0.34766248  0.85723947    -0.18000
C526        C  0.03548231  0.34968500  0.88878887     0.10400
S527        S  0.93480813  0.27546410  0.84336226    -0.33000
S528        S  0.07703692  0.37671587  0.90522909    -0.33000
H529        H  0.09378062  0.34168926  0.91834382     0.28400
H530        H  0.96026942  0.25973219  0.82096982     0.28400
H531        H  0.95000101  0.29673421  0.90417744     0.18900
H532        H  0.05690395  0.36257897  0.84420059     0.19000
C533        C  0.99517652  0.33844153  0.59237691    -0.06900
C534        C  0.96710366  0.31385410  0.60718242    -0.18000
C535        C  0.96684828  0.31051734  0.63875294     0.10300
C536        C  0.99467188  0.33304593  0.65617257    -0.06800
C537        C  0.02235253  0.35798285  0.64134014    -0.18000
C538        C  0.02254023  0.36137934  0.60984912     0.10400
S539        S  0.93193712  0.27522053  0.65512689    -0.33000
S540        S  0.05710389  0.39704812  0.59351689    -0.33000
H541        H  0.03051489  0.40998941  0.57050947     0.28400
H542        H  0.95812484  0.26195831  0.67823509     0.28400
H543        H  0.94624864  0.29583151  0.59401670     0.18900
H544        H  0.04334654  0.37591348  0.65445688     0.19000
C545        C  0.99360957  0.12190687  0.74963360    -0.06900
C546        C  0.01917457  0.14202318  0.72951033    -0.18000
C547        C  0.02031103  0.18413463  0.72814484     0.10300
C548        C  0.99573510  0.20700928  0.74768035    -0.06800
C549        C  0.96980288  0.18691600  0.76757672    -0.18000
C550        C  0.96830979  0.14475140  0.76867516     0.10400
S551        S  0.05265388  0.20658238  0.70021455    -0.33000
S552        S  0.93246128  0.12213558  0.79398219    -0.33000
H553        H  0.92137168  0.09085440  0.77420842     0.28400
H554        H  0.02665229  0.23888844  0.69315859     0.28400
H555        H  0.03844375  0.12475683  0.71464486     0.18900
H556        H  0.95051238  0.20419329  0.78239739     0.19000
C557        C  0.00156418  0.12744223  0.50128051    -0.06900
C558        C  0.97756868  0.14796874  0.97996307    -0.18000
C559        C  0.97716605  0.19012979  0.97849013     0.10300
C560        C  0.00058443  0.21256338  0.99922638    -0.06800
C561        C  0.02522674  0.19206620  0.52011346    -0.18000
C562        C  0.02632634  0.14990255  0.52114900     0.10400
S563        S  0.94775534  0.21339062  0.94874673    -0.33000
S564        S  0.06141172  0.12669482  0.54724123    -0.33000
H565        H  0.07281504  0.09577985  0.52733531     0.28400
H566        H  0.97581866  0.24407500  0.94286812     0.28400
H567        H  0.95910905  0.13101513  0.96421469     0.18900
H568        H  0.04390360  0.20905409  0.53570017     0.19000
C569        C  0.78705268  0.99770430  0.74861198    -0.06900
C570        C  0.80755421  0.98004778  0.72446628    -0.18000
C571        C  0.84966087  0.97831730  0.72403598     0.10300
C572        C  0.87216013  0.99522281  0.74818277    -0.06800
C573        C  0.85137189  0.01253624  0.77253835    -0.18000
C574        C  0.80919970  0.01367309  0.77310833     0.10400
S575        S  0.87241065  0.95272856  0.69254845    -0.33000
S576        S  0.78544416  0.03486605  0.80601119    -0.33000
H577        H  0.75231701  0.00854397  0.80587073     0.28400
H578        H  0.90103191  0.93195090  0.71038121     0.28400
H579        H  0.79055602  0.96737226  0.70578298     0.18900
H580        H  0.86806517  0.02541547  0.79128459     0.19000
C581        C  0.66892002  0.99557589  0.90215392    -0.06900
C582        C  0.64847794  0.96464000  0.88683604    -0.18000
C583        C  0.64469664  0.96485005  0.85530517     0.10300
C584        C  0.66239540  0.99637460  0.83838747    -0.06800
C585        C  0.68318021  0.02698653  0.85373348    -0.18000
C586        C  0.68731874  0.02654364  0.88514383     0.10400
S587        S  0.61506433  0.92528497  0.83837849    -0.33000
S588        S  0.71857834  0.06505065  0.90179313    -0.33000
H589        H  0.73683580  0.03903954  0.92308407     0.28400
H590        H  0.59576925  0.95072997  0.81722036     0.28400
H591        H  0.63401877  0.94082770  0.89958212     0.18900
H592        H  0.69770328  0.05082537  0.84105453     0.19000
C593        C  0.66624891  0.00347122  0.65227446    -0.06900
C594        C  0.68243670  0.96954322  0.63766262    -0.18000
C595        C  0.68513037  0.96762155  0.60620284     0.10300
C596        C  0.67005261  0.99986216  0.58835537    -0.06800
C597        C  0.65472548  0.03420927  0.60295435    -0.18000
C598        C  0.65237850  0.03629785  0.63446654     0.10400
S599        S  0.71013309  0.92407628  0.59064357    -0.33000
S600        S  0.62931655  0.08079724  0.65013458    -0.33000
H601        H  0.60487851  0.05915117  0.67029379     0.28400
H602        H  0.73252962  0.94646477  0.56958459     0.28400
H603        H  0.69414968  0.94452748  0.65090561     0.18900
H604        H  0.64312888  0.05926056  0.58969883     0.19000
C605        C  0.79202414  0.99689436  0.49882421    -0.06900
C606        C  0.81423220  0.97105015  0.98016484    -0.18000
C607        C  0.85645055  0.97117356  0.98068655     0.10300
C608        C  0.87715602  0.99814031  0.50000603    -0.06800
C609        C  0.85489355  0.02327432  0.51914726    -0.18000
C610        C  0.81274185  0.02271756  0.51895656     0.10400
S611        S  0.88203847  0.93515665  0.95707459    -0.33000
S612        S  0.78722421  0.05456225  0.54574949    -0.33000
H613        H  0.75682714  0.02649473  0.55239944     0.28400
H614        H  0.91269330  0.92650892  0.97825108     0.28400
H615        H  0.79858032  0.95070238  0.96499089     0.18900
H616        H  0.87047892  0.04358128  0.53438892     0.19000
C617        C  0.00032369  0.45537715  0.75016824    -0.06900
C618        C  0.02869317  0.47486939  0.76870635    -0.18000
C619        C  0.02939414  0.51700122  0.77118329     0.10300
C620        C  0.00171499  0.54056478  0.75420778    -0.06800
C621        C  0.97340234  0.52102750  0.73565438    -0.18000
C622        C  0.97279594  0.47896305  0.73309275     0.10400
S623        S  0.06482853  0.53858255  0.79758586    -0.33000
S624        S  0.93786824  0.45750577  0.70623204    -0.33000
H625        H  0.96432542  0.42708130  0.69632635     0.28400
H626        H  0.03882244  0.56947668  0.80734421     0.28400
H627        H  0.04966874  0.45707967  0.78213759     0.18900
H628        H  0.95248995  0.53876175  0.72212391     0.19000
C629        C  0.00257595  0.78897319  0.74653864    -0.06900
C630        C  0.03142052  0.81026370  0.76344160    -0.18000
C631        C  0.03144280  0.85245890  0.76407224     0.10300
C632        C  0.00159944  0.87410329  0.74781767    -0.06800
C633        C  0.97345700  0.85294902  0.73025205    -0.18000
C634        C  0.97379875  0.81077604  0.72921815     0.10400
S635        S  0.07107344  0.87688411  0.78519357    -0.33000
S636        S  0.93776804  0.78680481  0.70448080    -0.33000
H637        H  0.96440687  0.75639389  0.69486838     0.28400
H638        H  0.07563920  0.90925973  0.76492106     0.28400
H639        H  0.05401253  0.79391146  0.77644289     0.18900
H640        H  0.95097461  0.86943619  0.71722763     0.19000
C641        C  0.00081136  0.54619372  0.00169263    -0.06900
C642        C  0.02883463  0.52554273  0.98384071    -0.18000
C643        C  0.02880635  0.48331940  0.98200587     0.10300
C644        C  0.00003480  0.46101771  0.99843292    -0.06800
C645        C  0.97181003  0.48169913  0.51613885    -0.18000
C646        C  0.97238710  0.52382062  0.51842581     0.10400
S647        S  0.06422580  0.45859111  0.95731724    -0.33000
S648        S  0.93776849  0.54691312  0.54448209    -0.33000
H649        H  0.96511853  0.57625271  0.55481744     0.28400
H650        H  0.08457202  0.49342004  0.94767605     0.28400
H651        H  0.05032734  0.54272044  0.97078451     0.18900
H652        H  0.95010512  0.46480835  0.52925797     0.19000
C653        C  0.00420955  0.66949911  0.90831856    -0.06900
C654        C  0.03188304  0.69355874  0.89261867    -0.18000
C655        C  0.03167450  0.69525896  0.86095470     0.10300
C656        C  0.00393153  0.67148458  0.84440891    -0.06800
C657        C  0.97618196  0.64770991  0.86014772    -0.18000
C658        C  0.97634307  0.64602966  0.89169908     0.10400
S659        S  0.06583330  0.73006714  0.84316942    -0.33000
S660        S  0.94174532  0.61145092  0.90923276    -0.33000
H661        H  0.96913484  0.59830634  0.93164027     0.28400
H662        H  0.03892657  0.74141135  0.81991784     0.28400
H663        H  0.05293005  0.71219669  0.90511514     0.18900
H664        H  0.95507704  0.62905026  0.84772485     0.19000
C665        C  0.00135745  0.66843467  0.59457946    -0.06900
C666        C  0.03091581  0.64536523  0.60966113    -0.18000
C667        C  0.03087807  0.64110491  0.64113281     0.10300
C668        C  0.00118839  0.66114674  0.65833028    -0.06800
C669        C  0.97132452  0.68377249  0.64323325    -0.18000
C670        C  0.97142570  0.68814786  0.61178213     0.10400
S671        S  0.06826502  0.60798942  0.65767510    -0.33000
S672        S  0.93410106  0.72145048  0.59538163    -0.33000
H673        H  0.96066750  0.73899461  0.57450652     0.28400
H674        H  0.04236339  0.59197216  0.67967445     0.28400
H675        H  0.05355476  0.62950128  0.59678321     0.18900
H676        H  0.94867851  0.69962648  0.65610186     0.19000
C677        C  0.00494861  0.79423762  0.00117707    -0.06900
C678        C  0.02673221  0.81450760  0.02371501    -0.18000
C679        C  0.02718507  0.85670318  0.02496639     0.10300
C680        C  0.00502276  0.87930611  0.50329582    -0.06800
C681        C  0.98378764  0.85884182  0.48049539    -0.18000
C682        C  0.98364405  0.81674433  0.47912717     0.10400
S683        S  0.05768129  0.87956821  0.05408446    -0.33000
S684        S  0.95669940  0.79363102  0.44819372    -0.36000
H685        H  0.98424444  0.76175070  0.44423272     0.28400
H686        H  0.07213394  0.91095045  0.03572749     0.28400
H687        H  0.04340772  0.79731515  0.04053742     0.18900
H688        H  0.96711992  0.87576906  0.46353239     0.19000
C689        C  0.53885748  0.00250384  0.74554275    -0.06900
C690        C  0.51960936  0.96863763  0.75793436    -0.18000
C691        C  0.47774771  0.96721863  0.76125586     0.10300
C692        C  0.45364712  0.99982627  0.75088311    -0.06800
C693        C  0.47279651  0.03352627  0.73814039    -0.18000
C694        C  0.51480814  0.03540602  0.73561565     0.10400
S695        S  0.45760839  0.92381321  0.78048914    -0.33000
S696        S  0.53549977  0.07980466  0.71823900    -0.33000
H697        H  0.55220722  0.09360593  0.74562225     0.28400
H698        H  0.43101534  0.94643252  0.79846216     0.28400
H699        H  0.53744736  0.94342001  0.76620978     0.18900
H700        H  0.45487916  0.05864477  0.72979245     0.19000
C701        C  0.12008002  0.00116480  0.75030906    -0.06900
C702        C  0.14114090  0.97204678  0.73375695    -0.18000
C703        C  0.18328224  0.97106361  0.73373706     0.10300
C704        C  0.20513618  0.99930641  0.75125621    -0.06800
C705        C  0.18392079  0.02887091  0.76740639    -0.18000
C706        C  0.14176878  0.03035428  0.76686082     0.10400
S707        S  0.20713066  0.93433642  0.70971670    -0.33000
S708        S  0.11748616  0.07109904  0.78670987    -0.33000
H709        H  0.08593532  0.07628043  0.76563383     0.28400
H710        H  0.23698027  0.96087915  0.69923123     0.28400
H711        H  0.12459486  0.94994524  0.72063658     0.18900
H712        H  0.20029830  0.05112659  0.78048198     0.19000
C713        C  0.45861073  0.99848670  0.00081274    -0.06900
C714        C  0.47843226  0.02974583  0.98549021    -0.18000
C715        C  0.52030740  0.02949785  0.98185730     0.10300
C716        C  0.54367242  0.99814667  0.99496791    -0.06800
C717        C  0.52392059  0.96678186  0.51017206    -0.18000
C718        C  0.48184125  0.96637628  0.51312967     0.10400
S719        S  0.54157272  0.06884065  0.95879184    -0.33000
S720        S  0.45894997  0.92563489  0.53402541    -0.33000
H721        H  0.49397721  0.90223315  0.53836836     0.28400
H722        H  0.56938901  0.04331092  0.94435036     0.28400
H723        H  0.46099233  0.05398321  0.97526058     0.18900
H724        H  0.54172306  0.94291151  0.52045748     0.19000
C725        C  0.33036950  0.99732711  0.84645142    -0.06900
C726        C  0.31979176  0.03319323  0.86139409    -0.18000
C727        C  0.31853547  0.03549905  0.89290469     0.10300
C728        C  0.32973390  0.00154208  0.91059075    -0.06800
C729        C  0.34032208  0.96565858  0.89569951    -0.18000
C730        C  0.34028536  0.96295956  0.86416381     0.10400
S731        S  0.30052832  0.08223592  0.90866196    -0.33000
S732        S  0.35447415  0.91502813  0.84834632    -0.33000
H733        H  0.31601982  0.90871803  0.83559248     0.28400
H734        H  0.27382349  0.06325272  0.92872402     0.28400
H735        H  0.31128553  0.05969110  0.84842553     0.18900
H736        H  0.34894453  0.93923705  0.90871719     0.19000
C737        C  0.33515770  0.00253305  0.59679245    -0.06900
C738        C  0.31300790  0.03268519  0.61158896    -0.18000
C739        C  0.30840960  0.03218897  0.64298367     0.10300
C740        C  0.32754696  0.00162649  0.66028430    -0.06800
C741        C  0.34951838  0.97146949  0.64546309    -0.18000
C742        C  0.35390690  0.97183321  0.61414894     0.10400
S743        S  0.27578491  0.06982979  0.65923587    -0.33000
S744        S  0.38608089  0.93383179  0.59805196    -0.33000
H745        H  0.40418442  0.96089086  0.57779623     0.28400
H746        H  0.25888093  0.04363968  0.68074619     0.28400
H747        H  0.29787610  0.05600083  0.59851659     0.18900
H748        H  0.36478371  0.94817899  0.65848765     0.19000
C749        C  0.21018280  0.00462683  0.50638005    -0.06900
C750        C  0.18943842  0.97753981  0.98764905    -0.18000
C751        C  0.14735044  0.97617486  0.98711320     0.10300
C752        C  0.12508031  0.00290841  0.50541502    -0.06800
C753        C  0.14575692  0.02939875  0.52471031    -0.18000
C754        C  0.18796956  0.03045490  0.52547866     0.10400
S755        S  0.12407284  0.93856890  0.96340215    -0.33000
S756        S  0.21154415  0.06416190  0.55210846    -0.33000
H757        H  0.24305419  0.03750702  0.55987709     0.28400
H758        H  0.09244528  0.92984910  0.98330908     0.28400
H759        H  0.20619867  0.95717165  0.97327479     0.18900
H760        H  0.12895395  0.04942430  0.53928284     0.19000
loop_ 
_geom_bond_atom_site_label_1 
_geom_bond_atom_site_label_2 
_geom_bond_distance 
_geom_bond_site_symmetry_2 
_ccdc_geom_bond_type 
O1           Cu9   2.000       .  S
O1           C11   1.277   1_565  A
O2           Cu9   2.005       .  S
O2          C392   1.277       .  A
O3           Cu9   2.002       .  S
O3           C13   1.277   1_565  A
O4         Cu389   2.003       .  S
O4           C14   1.278   1_565  A
O5          Cu10   2.009       .  S
O5           C14   1.277       .  A
O6         Cu390   2.006       .  S
O6           C13   1.277       .  A
O7          Cu10   2.017       .  S
O7           C12   1.280   1_545  A
O8          Cu10   2.016       .  S
O8          C391   1.279       .  A
Cu9         O384   2.003   1_554  S
Cu9        Cu390   2.370   1_565  S
Cu10        O386   2.006       .  S
Cu10       Cu389   2.370   1_545  S
C11         O388   1.279       .  A
C11         C369   1.476       .  S
C12         O382   1.277       .  A
C12         C333   1.486       .  S
C13         C357   1.477       .  S
C14         C348   1.488       .  S
O15         Cu23   1.999       .  S
O15          C25   1.277   1_565  A
O16         Cu23   2.007       .  S
O16          C26   1.276       .  A
O17         Cu23   2.005       .  S
O17          C27   1.277       .  A
O18         Cu23   2.006       .  S
O18          C28   1.277       .  A
O19         Cu24   2.010       .  S
O19          C28   1.279   1_545  A
O20         Cu24   2.007       .  S
O20          C27   1.278   1_545  A
O21         Cu24   2.005       .  S
O21          C26   1.279   1_545  A
O22         Cu24   2.003       .  S
O22          C25   1.277       .  A
Cu23        Cu24   2.369   1_565  S
C25         C360   1.476       .  S
C26         C345   1.490       .  S
C27         C324   1.478       .  S
C28         C312   1.486       .  S
O29         Cu37   2.017       .  S
O29          C39   1.279       .  A
O30        Cu417   2.011       .  S
O30          C40   1.279       .  A
O31         Cu37   2.010       .  S
O31          C41   1.279       .  A
O32         Cu37   2.008       .  S
O32          C42   1.277       .  A
O33         Cu38   2.004       .  S
O33          C42   1.277   1_655  A
O34         Cu38   2.004       .  S
O34          C41   1.277   1_655  A
O35        Cu418   2.006       .  S
O35          C40   1.277   1_655  A
O36         Cu38   2.005       .  S
O36          C39   1.278   1_655  A
Cu37        O410   2.011       .  S
Cu37        Cu38   2.373   1_455  S
Cu38        O415   2.006       .  S
C39         C273   1.480       .  S
C40         C285   1.482       .  S
C41         C261   1.478       .  S
C42         C297   1.471       .  S
O43         Cu51   2.006       .  S
O43          C53   1.277   1_655  A
O44         Cu51   2.004       .  S
O44          C54   1.277   1_655  A
O45         Cu51   2.008       .  S
O45          C55   1.278   1_655  A
O46         Cu51   2.012       .  S
O46          C56   1.279   1_655  A
O47         Cu52   2.009       .  S
O47          C56   1.277       .  A
O48         Cu52   2.010       .  S
O48          C55   1.278       .  A
O49         Cu52   2.010       .  S
O49          C54   1.278       .  A
O50         Cu52   2.016       .  S
O50          C53   1.279       .  A
Cu51        Cu52   2.372   1_655  S
C53         C240   1.480       .  S
C54         C249   1.477       .  S
C55         C288   1.481       .  S
C56         C276   1.480       .  S
O57        Cu445   2.010       .  S
O57          C67   1.278       .  A
O58         Cu65   2.011   1_554  S
O58          C68   1.278       .  A
O59         Cu65   2.012       .  S
O59         C449   1.279       .  A
O60        Cu445   2.013       .  S
O60         C450   1.278       .  A
O61         Cu66   2.002       .  S
O61         C450   1.277   1_545  A
O62        Cu446   2.005       .  S
O62         C449   1.277   1_545  A
O63        Cu446   2.000   1_554  S
O63          C68   1.277   1_545  A
O64         Cu66   2.002       .  S
O64          C67   1.277   1_545  A
Cu65        O437   2.010       .  S
Cu65        O440   2.013       .  S
Cu65       Cu446   2.371   1_565  S
Cu66        O442   2.005       .  S
Cu66        O443   2.000       .  S
Cu66       Cu445   2.371   1_545  S
C67         C201   1.480       .  S
C68         C216   1.484       .  S
C69         O439   1.279       .  A
C69         O442   1.277   1_565  A
C69         C336   1.484       .  S
C70         O440   1.278       .  A
C70         O441   1.277   1_565  A
C70         C225   1.475       .  S
O71         Cu79   2.006       .  S
O71          C81   1.279   1_545  A
O72         Cu79   2.015       .  S
O72          C82   1.278       .  A
O73         Cu79   2.011       .  S
O73          C83   1.277       .  A
O74         Cu79   2.008       .  S
O74          C84   1.277   1_545  A
O75         Cu80   2.005       .  S
O75          C84   1.277       .  A
O76         Cu80   2.006       .  S
O76          C83   1.278   1_565  A
O77         Cu80   1.999       .  S
O77          C82   1.277   1_565  A
O78         Cu80   2.004       .  S
O78          C81   1.277       .  A
Cu79        Cu80   2.370   1_545  S
C81         C204   1.480       .  S
C82         C213   1.484       .  S
C83         C309   1.487       .  S
C84         C189   1.470       .  S
O85         Cu93   2.007       .  S
O85         C475   1.278       .  A
O86         Cu93   1.998   1_565  S
O86         C476   1.277       .  A
O87         Cu93   2.006   1_655  S
O87         C477   1.277       .  A
O88         Cu93   2.007       .  S
O88         C478   1.278       .  A
O89         Cu94   2.009       .  S
O89          C98   1.277       .  A
O90         Cu94   2.012   1_655  S
O90          C97   1.278       .  A
O91         Cu94   2.011   1_565  S
O91          C96   1.278       .  A
O92         Cu94   2.007   1_655  S
O92          C95   1.278   1_655  A
Cu93       Cu474   2.374       .  S
Cu94       Cu473   2.374   1_554  S
C95         O465   1.278   1_554  A
C95         C177   1.476       .  S
C96         O466   1.277   1_554  A
C96         C300   1.477       .  S
C97         O467   1.277   1_554  A
C97         C228   1.477   1_545  S
C98         O468   1.278   1_554  A
C98         C372   1.475       .  S
O99        Cu107   2.006   1_445  S
O99         C109   1.277       .  A
O100       Cu107   2.010       .  S
O100        C110   1.279       .  A
O101       Cu107   2.013       .  S
O101        C111   1.278       .  A
O102       Cu107   2.008   1_545  S
O102        C112   1.278       .  A
O103       Cu108   2.001   1_545  S
O103        C112   1.277       .  A
O104       Cu108   2.001       .  S
O104        C111   1.276       .  A
O105       Cu108   2.003       .  S
O105        C110   1.277       .  A
O106       Cu108   2.005   1_455  S
O106        C109   1.277   1_565  A
Cu107      Cu108   2.373       .  S
C109        C321   1.471       .  S
C110        C192   1.482       .  S
C111        C252   1.473   1_655  S
C112        C165   1.475       .  S
O113       Cu121   2.003       .  S
O113        C123   1.277   1_455  A
O114       Cu121   2.005       .  S
O114        C124   1.277       .  A
O115       Cu121   2.009       .  S
O115        C125   1.277       .  A
O116       Cu501   2.006       .  S
O116        C126   1.278   1_455  A
O117       Cu502   2.014   1_554  S
O117        C126   1.278       .  A
O118       Cu122   2.012       .  S
O118        C125   1.279   1_655  A
O119       Cu122   2.009       .  S
O119        C124   1.278   1_655  A
O120       Cu122   2.018       .  S
O120        C123   1.279       .  A
Cu121       O496   2.006       .  S
Cu121      Cu122   2.372   1_455  S
Cu122       O497   2.014       .  S
C123        C264   1.481   1_655  S
C124        C180   1.474       .  S
C125        C141   1.485       .  S
C126        C153   1.480       .  S
O127       Cu135   2.010       .  S
O127        C137   1.278   1_455  A
O128       Cu135   2.009       .  S
O128        C138   1.278   1_455  A
O129       Cu135   2.008       .  S
O129        C139   1.278   1_455  A
O130       Cu135   2.007       .  S
O130        C140   1.278       .  A
O131       Cu136   2.010       .  S
O131        C140   1.278   1_655  A
O132       Cu136   2.013       .  S
O132        C139   1.278       .  A
O133       Cu136   2.005       .  S
O133        C138   1.277       .  A
O134       Cu136   2.012       .  S
O134        C137   1.278       .  A
Cu135      Cu136   2.373   1_455  S
C137        C237   1.480   1_655  S
C138        C168   1.475       .  S
C139        C156   1.479       .  S
C140        C144   1.480       .  S
C141        C142   1.406   1_455  A
C141        C146   1.416       .  A
C142        C143   1.399       .  A
C142        H151   1.084       .  S
C143        C144   1.414   1_655  A
C143        S147   1.803       .  S
C144        C145   1.403       .  A
C145        C146   1.399       .  A
C145        H152   1.085       .  S
C146        S148   1.798       .  S
S147        H150   1.407       .  S
S148        H149   1.407       .  S
C153        C154   1.405       .  A
C153        C158   1.414   1_655  A
C154        C155   1.402       .  A
C154        H163   1.084       .  S
C155        C156   1.415       .  A
C155        S159   1.804       .  S
C156        C157   1.403   1_655  A
C157        C158   1.398       .  A
C157        H164   1.084       .  S
C158        S160   1.804       .  S
S159        H162   1.406       .  S
S160        H161   1.408       .  S
C165        C166   1.403   1_655  A
C165        C170   1.413       .  A
C166        C167   1.398       .  A
C166        H175   1.084       .  S
C167        C168   1.413   1_455  A
C167        S171   1.804       .  S
C168        C169   1.404       .  A
C169        C170   1.399       .  A
C169        H176   1.083       .  S
C170        S172   1.804       .  S
S171        H174   1.406       .  S
S172        H173   1.407       .  S
C177        C182   1.414       .  A
C177        C558   1.403   1_454  A
C178        C179   1.399       .  A
C178        C557   1.403   1_655  A
C178        H187   1.084       .  S
C179        C180   1.413   1_655  A
C179        S183   1.803       .  S
C180        C561   1.402       .  A
C181        C182   1.399       .  A
C181        C560   1.402   1_554  A
C181        H188   1.084       .  S
C182        S184   1.803       .  S
S183        H186   1.406       .  S
S184        H185   1.406       .  S
C189        C190   1.400       .  A
C189        C194   1.411   1_565  A
C190        C191   1.398       .  A
C190        H199   1.084       .  S
C191        C192   1.417       .  A
C191        S195   1.803       .  S
C192        C193   1.407   1_565  A
C193        C194   1.400       .  A
C193        H200   1.084       .  S
C194        S196   1.804       .  S
S195        H198   1.407       .  S
S196        H197   1.406       .  S
C201        C202   1.405       .  A
C201        C206   1.414   1_565  A
C202        C203   1.401       .  A
C202        H211   1.084       .  S
C203        C204   1.416       .  A
C203        S207   1.803       .  S
C204        C205   1.403   1_565  A
C205        C206   1.396       .  A
C205        H212   1.084       .  S
C206        S208   1.803       .  S
S207        H210   1.408       .  S
S208        H209   1.408       .  S
C213        C214   1.406   1_545  A
C213        C218   1.415       .  A
C214        C215   1.398       .  A
C214        H223   1.083       .  S
C215        C216   1.415       .  A
C215        S219   1.803       .  S
C216        C217   1.406   1_565  A
C217        C218   1.400       .  A
C217        H224   1.083       .  S
C218        S220   1.802       .  S
S219        H222   1.408       .  S
S220        H221   1.407       .  S
C225        C230   1.414   1_566  A
C225        C606   1.402       .  A
C226        C227   1.401       .  A
C226        C605   1.402       .  A
C226        H235   1.084       .  S
C227        C608   1.415       .  A
C227        S231   1.803       .  S
C228        C229   1.402   1_565  A
C228        C607   1.415   1_554  A
C229        C230   1.398       .  A
C229        H236   1.084       .  S
C230        S232   1.803       .  S
S231        H234   1.406       .  S
S232        H233   1.407       .  S
C237        C238   1.405       .  A
C237        C242   1.414   1_455  A
C238        C239   1.401       .  A
C238        H247   1.084       .  S
C239        C240   1.414       .  A
C239        S243   1.803       .  S
C240        C241   1.404   1_455  A
C241        C242   1.399       .  A
C241        H248   1.084       .  S
C242        S244   1.804       .  S
S243        H246   1.407       .  S
S244        H245   1.407       .  S
C249        C250   1.404       .  A
C249        C254   1.415   1_455  A
C250        C251   1.399       .  A
C250        H259   1.084       .  S
C251        C252   1.412       .  A
C251        S255   1.803       .  S
C252        C253   1.402   1_455  A
C253        C254   1.399       .  A
C253        H260   1.085       .  S
C254        S256   1.803       .  S
S255        H258   1.406       .  S
S256        H257   1.407       .  S
C261        C262   1.402       .  A
C261        C646   1.414   1_455  A
C262        C263   1.402       .  A
C262        H271   1.083       .  S
C263        C264   1.414       .  A
C263        S267   1.806       .  S
C264        C645   1.404   1_455  A
C265        C266   1.400       .  A
C265        C644   1.404   1_654  A
C265        H272   1.085       .  S
C266        C641   1.414   1_655  A
C266        S268   1.804       .  S
S267        H270   1.406       .  S
S268        H269   1.408       .  S
C273        C274   1.405       .  A
C273        C278   1.414   1_455  A
C274        C275   1.403       .  A
C274        H283   1.084       .  S
C275        C276   1.415       .  A
C275        S279   1.804       .  S
C276        C277   1.402   1_455  A
C277        C278   1.398       .  A
C277        H284   1.084       .  S
C278        S280   1.803       .  S
S279        H282   1.407       .  S
S280        H281   1.407       .  S
C285        C286   1.405       .  A
C285        C290   1.415   1_455  A
C286        C287   1.400       .  A
C286        H295   1.082       .  S
C287        C288   1.414       .  A
C287        S291   1.803       .  S
C288        C289   1.405   1_455  A
C289        C290   1.400       .  A
C289        H296   1.082       .  S
C290        S292   1.803       .  S
S291        H294   1.408       .  S
S292        H293   1.408       .  S
C297        C298   1.402       .  A
C297        C682   1.411   1_455  A
C298        C299   1.400       .  A
C298        H307   1.084       .  S
C299        C680   1.415       .  A
C299        S303   1.803       .  S
C300        C301   1.404   1_454  A
C300        C679   1.415       .  A
C301        C302   1.397       .  A
C301        H308   1.083       .  S
C302        C677   1.411   1_656  A
C302        S304   1.804       .  S
S303        H306   1.406       .  S
S304        H305   1.407       .  S
C309        C310   1.406   1_545  A
C309        C314   1.416       .  A
C310        C311   1.398       .  A
C310        H319   1.084       .  S
C311        C312   1.416       .  A
C311        S315   1.803       .  S
C312        C313   1.406   1_565  A
C313        C314   1.401       .  A
C313        H320   1.084       .  S
C314        S316   1.799       .  S
S315        H318   1.408       .  S
S316        H317   1.408       .  S
C321        C322   1.401   1_545  A
C321        C326   1.411       .  A
C322        C323   1.398       .  A
C322        H331   1.084       .  S
C323        C324   1.416       .  A
C323        S327   1.803       .  S
C324        C325   1.405   1_565  A
C325        C326   1.399       .  A
C325        H332   1.084       .  S
C326        S328   1.804       .  S
S327        H330   1.408       .  S
S328        H329   1.407       .  S
C333        C334   1.405   1_565  A
C333        C718   1.417       .  A
C334        C335   1.400       .  A
C334        H343   1.084       .  S
C335        C336   1.415   1_545  A
C335        S339   1.803       .  S
C336        C717   1.404       .  A
C337        C338   1.403       .  A
C337        C716   1.404   1_554  A
C337        H344   1.083       .  S
C338        C713   1.417       .  A
C338        S340   1.808       .  S
S339        H342   1.408       .  S
S340        H341   1.406       .  S
C345        C346   1.407   1_565  A
C345        C350   1.418       .  A
C346        C347   1.398       .  A
C346        H355   1.083       .  S
C347        C348   1.416       .  A
C347        S351   1.802       .  S
C348        C349   1.406   1_545  A
C349        C350   1.399       .  A
C349        H356   1.084       .  S
C350        S352   1.800       .  S
S351        H354   1.408       .  S
S352        H353   1.408       .  S
C357        C358   1.405       .  A
C357        C362   1.413   1_545  A
C358        C359   1.399       .  A
C358        H367   1.084       .  S
C359        C360   1.414       .  A
C359        S363   1.803       .  S
C360        C361   1.402   1_545  A
C361        C362   1.395       .  A
C361        H368   1.084       .  S
C362        S364   1.800       .  S
S363        H366   1.408       .  S
S364        H365   1.406       .  S
C369        C374   1.414       .  A
C369        C750   1.403   1_544  A
C370        C371   1.397       .  A
C370        C749   1.403   1_565  A
C370        H379   1.084       .  S
C371        C752   1.413   1_565  A
C371        S375   1.804       .  S
C372        C373   1.404       .  A
C372        C751   1.413   1_544  A
C373        C374   1.401       .  A
C373        H380   1.083       .  S
C374        S376   1.803       .  S
S375        H378   1.405       .  S
S376        H377   1.406       .  S
O381       Cu389   1.999       .  S
O381        C391   1.277   1_565  A
O382       Cu389   2.005       .  S
O383       Cu389   2.002       .  S
O383        C393   1.277   1_565  A
O384        C394   1.278   1_565  A
O385       Cu390   2.009   1_556  S
O385        C394   1.277       .  A
O386        C393   1.277       .  A
O387       Cu390   2.017       .  S
O387        C392   1.280   1_545  A
O388       Cu390   2.016       .  S
C391        C749   1.476       .  S
C392        C713   1.486       .  S
C393        C737   1.477       .  S
C394        C728   1.488       .  S
O395       Cu403   1.999       .  S
O395        C405   1.277   1_565  A
O396       Cu403   2.007       .  S
O396        C406   1.276       .  A
O397       Cu403   2.005       .  S
O397        C407   1.277       .  A
O398       Cu403   2.006       .  S
O398        C408   1.277       .  A
O399       Cu404   2.010       .  S
O399        C408   1.279   1_545  A
O400       Cu404   2.007       .  S
O400        C407   1.278   1_545  A
O401       Cu404   2.005       .  S
O401        C406   1.279   1_545  A
O402       Cu404   2.003       .  S
O402        C405   1.277       .  A
Cu403      Cu404   2.369   1_565  S
C405        C740   1.476       .  S
C406        C725   1.490       .  S
C407        C704   1.478       .  S
C408        C692   1.486       .  S
O409       Cu417   2.017   1_556  S
O409        C419   1.279       .  A
O410        C420   1.279       .  A
O411       Cu417   2.010       .  S
O411        C421   1.279       .  A
O412       Cu417   2.008       .  S
O412        C422   1.277       .  A
O413       Cu418   2.004       .  S
O413        C422   1.277   1_655  A
O414       Cu418   2.004       .  S
O414        C421   1.277   1_655  A
O415        C420   1.277   1_655  A
O416       Cu418   2.005   1_556  S
O416        C419   1.278   1_655  A
Cu417      Cu418   2.373   1_455  S
C419        C653   1.480       .  S
C420        C665   1.482       .  S
C421        C641   1.478       .  S
C422        C677   1.471       .  S
O423       Cu431   2.006       .  S
O423        C433   1.277   1_655  A
O424       Cu431   2.004       .  S
O424        C434   1.277   1_655  A
O425       Cu431   2.008       .  S
O425        C435   1.278   1_655  A
O426       Cu431   2.012       .  S
O426        C436   1.279   1_655  A
O427       Cu432   2.009       .  S
O427        C436   1.277       .  A
O428       Cu432   2.010       .  S
O428        C435   1.278       .  A
O429       Cu432   2.010       .  S
O429        C434   1.278       .  A
O430       Cu432   2.016       .  S
O430        C433   1.279       .  A
Cu431      Cu432   2.372   1_655  S
C433        C620   1.480       .  S
C434        C629   1.477       .  S
C435        C668   1.481       .  S
C436        C656   1.480       .  S
O437        C447   1.278       .  A
O438       Cu445   2.011       .  S
O438        C448   1.278       .  A
O439       Cu445   2.012       .  S
O441       Cu446   2.002       .  S
O443        C448   1.277   1_545  A
O444       Cu446   2.002       .  S
O444        C447   1.277   1_545  A
C447        C581   1.480       .  S
C448        C596   1.484       .  S
C449        C716   1.483       .  S
C450        C605   1.475       .  S
O451       Cu459   2.006       .  S
O451        C461   1.279   1_545  A
O452       Cu459   2.015       .  S
O452        C462   1.278       .  A
O453       Cu459   2.011       .  S
O453        C463   1.277       .  A
O454       Cu459   2.008       .  S
O454        C464   1.277   1_545  A
O455       Cu460   2.005       .  S
O455        C464   1.277       .  A
O456       Cu460   2.006       .  S
O456        C463   1.278   1_565  A
O457       Cu460   1.999       .  S
O457        C462   1.277   1_565  A
O458       Cu460   2.004       .  S
O458        C461   1.277       .  A
Cu459      Cu460   2.370   1_545  S
C461        C584   1.480       .  S
C462        C593   1.484       .  S
C463        C689   1.487       .  S
C464        C569   1.470       .  S
O465       Cu473   2.007       .  S
O466       Cu473   1.998   1_565  S
O467       Cu473   2.006   1_655  S
O468       Cu473   2.007       .  S
O469       Cu474   2.009       .  S
O469        C478   1.277       .  A
O470       Cu474   2.012   1_655  S
O470        C477   1.278       .  A
O471       Cu474   2.011   1_565  S
O471        C476   1.278       .  A
O472       Cu474   2.007   1_655  S
O472        C475   1.278   1_655  A
C475        C557   1.476       .  S
C476        C680   1.477       .  S
C477        C608   1.477   1_545  S
C478        C752   1.475       .  S
O479       Cu487   2.005   1_445  S
O479        C489   1.277       .  A
O480       Cu487   2.010       .  S
O480        C490   1.279       .  A
O481       Cu487   2.013       .  S
O481        C491   1.278       .  A
O482       Cu487   2.008   1_545  S
O482        C492   1.278       .  A
O483       Cu488   2.001   1_545  S
O483        C492   1.277       .  A
O484       Cu488   2.001       .  S
O484        C491   1.276       .  A
O485       Cu488   2.003       .  S
O485        C490   1.277       .  A
O486       Cu488   2.005   1_455  S
O486        C489   1.277   1_565  A
Cu487      Cu488   2.373       .  S
C489        C701   1.471       .  S
C490        C572   1.482       .  S
C491        C632   1.473   1_655  S
C492        C545   1.475       .  S
O493       Cu501   2.003   1_556  S
O493        C503   1.277   1_455  A
O494       Cu501   2.005       .  S
O494        C504   1.277   1_554  A
O495       Cu501   2.009   1_556  S
O495        C505   1.277       .  A
O496        C506   1.278   1_455  A
O497        C506   1.278       .  A
O498       Cu502   2.012       .  S
O498        C505   1.279   1_655  A
O499       Cu502   2.009       .  S
O499        C504   1.278   1_655  A
O500       Cu502   2.018       .  S
O500        C503   1.279       .  A
Cu501      Cu502   2.372   1_454  S
C503        C644   1.481   1_655  S
C504        C560   1.474       .  S
C505        C521   1.485       .  S
C506        C533   1.480       .  S
O507       Cu515   2.010       .  S
O507        C517   1.278   1_455  A
O508       Cu515   2.009       .  S
O508        C518   1.278   1_455  A
O509       Cu515   2.008       .  S
O509        C519   1.278   1_455  A
O510       Cu515   2.007       .  S
O510        C520   1.278       .  A
O511       Cu516   2.010       .  S
O511        C520   1.278   1_655  A
O512       Cu516   2.013       .  S
O512        C519   1.278       .  A
O513       Cu516   2.005       .  S
O513        C518   1.277       .  A
O514       Cu516   2.012       .  S
O514        C517   1.278       .  A
Cu515      Cu516   2.373   1_455  S
C517        C617   1.480   1_655  S
C518        C548   1.475       .  S
C519        C536   1.479       .  S
C520        C524   1.480       .  S
C521        C522   1.406   1_455  A
C521        C526   1.416       .  A
C522        C523   1.399       .  A
C522        H531   1.084       .  S
C523        C524   1.414   1_655  A
C523        S527   1.803       .  S
C524        C525   1.403       .  A
C525        C526   1.399       .  A
C525        H532   1.085       .  S
C526        S528   1.798       .  S
S527        H530   1.407       .  S
S528        H529   1.407       .  S
C533        C534   1.405       .  A
C533        C538   1.414   1_655  A
C534        C535   1.402       .  A
C534        H543   1.084       .  S
C535        C536   1.415       .  A
C535        S539   1.804       .  S
C536        C537   1.403   1_655  A
C537        C538   1.398       .  A
C537        H544   1.084       .  S
C538        S540   1.804       .  S
S539        H542   1.406       .  S
S540        H541   1.408       .  S
C545        C546   1.403   1_655  A
C545        C550   1.413       .  A
C546        C547   1.398       .  A
C546        H555   1.084       .  S
C547        C548   1.413   1_455  A
C547        S551   1.804       .  S
C548        C549   1.404       .  A
C549        C550   1.399       .  A
C549        H556   1.083       .  S
C550        S552   1.804       .  S
S551        H554   1.406       .  S
S552        H553   1.407       .  S
C557        C562   1.414       .  A
C558        C559   1.399       .  A
C558        H567   1.084       .  S
C559        C560   1.413   1_655  A
C559        S563   1.803       .  S
C561        C562   1.399       .  A
C561        H568   1.084       .  S
C562        S564   1.803       .  S
S563        H566   1.406       .  S
S564        H565   1.406       .  S
C569        C570   1.400       .  A
C569        C574   1.411   1_565  A
C570        C571   1.398       .  A
C570        H579   1.084       .  S
C571        C572   1.417       .  A
C571        S575   1.803       .  S
C572        C573   1.407   1_565  A
C573        C574   1.400       .  A
C573        H580   1.084       .  S
C574        S576   1.804       .  S
S575        H578   1.407       .  S
S576        H577   1.406       .  S
C581        C582   1.405       .  A
C581        C586   1.414   1_565  A
C582        C583   1.401       .  A
C582        H591   1.084       .  S
C583        C584   1.416       .  A
C583        S587   1.803       .  S
C584        C585   1.403   1_565  A
C585        C586   1.396       .  A
C585        H592   1.084       .  S
C586        S588   1.803       .  S
S587        H590   1.408       .  S
S588        H589   1.408       .  S
C593        C594   1.406   1_545  A
C593        C598   1.415       .  A
C594        C595   1.398       .  A
C594        H603   1.083       .  S
C595        C596   1.415       .  A
C595        S599   1.803       .  S
C596        C597   1.406   1_565  A
C597        C598   1.400       .  A
C597        H604   1.083       .  S
C598        S600   1.802       .  S
S599        H602   1.408       .  S
S600        H601   1.407       .  S
C605        C610   1.414   1_565  A
C606        C607   1.401       .  A
C606        H615   1.084       .  S
C607        S611   1.803       .  S
C608        C609   1.402   1_565  A
C609        C610   1.398       .  A
C609        H616   1.084       .  S
C610        S612   1.803       .  S
S611        H614   1.406       .  S
S612        H613   1.407       .  S
C617        C618   1.405       .  A
C617        C622   1.414   1_455  A
C618        C619   1.401       .  A
C618        H627   1.084       .  S
C619        C620   1.414       .  A
C619        S623   1.803       .  S
C620        C621   1.404   1_455  A
C621        C622   1.399       .  A
C621        H628   1.084       .  S
C622        S624   1.804       .  S
S623        H626   1.407       .  S
S624        H625   1.407       .  S
C629        C630   1.404       .  A
C629        C634   1.415   1_455  A
C630        C631   1.399       .  A
C630        H639   1.084       .  S
C631        C632   1.412       .  A
C631        S635   1.803       .  S
C632        C633   1.402   1_455  A
C633        C634   1.399       .  A
C633        H640   1.085       .  S
C634        S636   1.803       .  S
S635        H638   1.406       .  S
S636        H637   1.407       .  S
C641        C642   1.402   1_554  A
C642        C643   1.402       .  A
C642        H651   1.083       .  S
C643        C644   1.414       .  A
C643        S647   1.806       .  S
C645        C646   1.400       .  A
C645        H652   1.085       .  S
C646        S648   1.804       .  S
S647        H650   1.406       .  S
S648        H649   1.408       .  S
C653        C654   1.405       .  A
C653        C658   1.414   1_455  A
C654        C655   1.403       .  A
C654        H663   1.084       .  S
C655        C656   1.415       .  A
C655        S659   1.804       .  S
C656        C657   1.402   1_455  A
C657        C658   1.398       .  A
C657        H664   1.084       .  S
C658        S660   1.803       .  S
S659        H662   1.407       .  S
S660        H661   1.407       .  S
C665        C666   1.405       .  A
C665        C670   1.415   1_455  A
C666        C667   1.400       .  A
C666        H675   1.082       .  S
C667        C668   1.414       .  A
C667        S671   1.803       .  S
C668        C669   1.405   1_455  A
C669        C670   1.400       .  A
C669        H676   1.082       .  S
C670        S672   1.803       .  S
S671        H674   1.408       .  S
S672        H673   1.408       .  S
C677        C678   1.402       .  A
C678        C679   1.400       .  A
C678        H687   1.084       .  S
C679        S683   1.803       .  S
C680        C681   1.404   1_455  A
C681        C682   1.397       .  A
C681        H688   1.083       .  S
C682        S684   1.804       .  S
S683        H686   1.406       .  S
S684        H685   1.407       .  S
C689        C690   1.406   1_545  A
C689        C694   1.416       .  A
C690        C691   1.398       .  A
C690        H699   1.084       .  S
C691        C692   1.416       .  A
C691        S695   1.803       .  S
C692        C693   1.406   1_565  A
C693        C694   1.401       .  A
C693        H700   1.084       .  S
C694        S696   1.799       .  S
S695        H698   1.408       .  S
S696        H697   1.408       .  S
C701        C702   1.401   1_545  A
C701        C706   1.411       .  A
C702        C703   1.398       .  A
C702        H711   1.084       .  S
C703        C704   1.416       .  A
C703        S707   1.803       .  S
C704        C705   1.405   1_565  A
C705        C706   1.399       .  A
C705        H712   1.084       .  S
C706        S708   1.804       .  S
S707        H710   1.408       .  S
S708        H709   1.407       .  S
C713        C714   1.405   1_564  A
C714        C715   1.400       .  A
C714        H723   1.084       .  S
C715        C716   1.415   1_545  A
C715        S719   1.803       .  S
C717        C718   1.403       .  A
C717        H724   1.083       .  S
C718        S720   1.808       .  S
S719        H722   1.408       .  S
S720        H721   1.406       .  S
C725        C726   1.407   1_565  A
C725        C730   1.418       .  A
C726        C727   1.398       .  A
C726        H735   1.083       .  S
C727        C728   1.416       .  A
C727        S731   1.802       .  S
C728        C729   1.406   1_545  A
C729        C730   1.399       .  A
C729        H736   1.084       .  S
C730        S732   1.800       .  S
S731        H734   1.408       .  S
S732        H733   1.408       .  S
C737        C738   1.405       .  A
C737        C742   1.413   1_545  A
C738        C739   1.399       .  A
C738        H747   1.084       .  S
C739        C740   1.414       .  A
C739        S743   1.803       .  S
C740        C741   1.402   1_545  A
C741        C742   1.395       .  A
C741        H748   1.084       .  S
C742        S744   1.800       .  S
S743        H746   1.408       .  S
S744        H745   1.406       .  S
C749        C754   1.414       .  A
C750        C751   1.397       .  A
C750        H759   1.084       .  S
C751        S755   1.804       .  S
C752        C753   1.404       .  A
C753        C754   1.401       .  A
C753        H760   1.083       .  S
C754        S756   1.803       .  S
S755        H758   1.405       .  S
S756        H757   1.406       .  S
