geometry optimzed in LAMMPS
_audit_creation_date              2020-11-30 
_audit_creation_method            'lammps2cif' 
_symmetry_space_group_name_H-M    'P1' 
_symmetry_Int_Tables_number       1 
_symmetry_cell_setting            triclinic 
loop_ 
_symmetry_equiv_pos_as_xyz 
  x,y,z 
_cell_length_a                    39.31523871 
_cell_length_b                    39.290107758546455 
_cell_length_c                    45.99834543544481 
_cell_angle_alpha                 90.15116925063836 
_cell_angle_beta                  89.966713602451 
_cell_angle_gamma                 90.01455959214529 
loop_ 
_atom_site_label 
_atom_site_type_symbol 
_atom_site_fract_x 
_atom_site_fract_y 
_atom_site_fract_z 
_atom_site_charge 
In1        In  0.95103690  0.25752469  0.04364008     1.36900
C2          C  0.99665197  0.20804390  0.03792422     0.77400
O3          O  0.99275353  0.29205848  0.02798572    -0.61000
O4          O  0.97328901  0.29969508  0.07055204    -0.51900
C5          C  0.91079758  0.28558516  0.51285218     0.70100
O6          O  0.93176536  0.26365117  0.50368622    -0.46800
C7          C  0.91308200  0.22472879  0.08250671     0.74800
O8          O  0.97645814  0.21122683  0.52119392    -0.58600
O9          O  0.92518894  0.25393992  0.08745721    -0.48700
O10         O  0.99503659  0.22728963  0.05986554    -0.55100
C11         C  0.99408934  0.30914275  0.05125050     0.85000
O12         O  0.90900701  0.29400153  0.03258452    -0.57000
O13         O  0.91921305  0.21340251  0.05741234    -0.60300
In14       In  0.97172394  0.24349348  0.27022701     1.36900
C15         C  0.01654787  0.28827677  0.28952766     0.77400
O16         O  0.00698589  0.20075015  0.28067446    -0.61000
O17         O  0.00352694  0.21638614  0.23658937    -0.51900
C18         C  0.92693651  0.20553180  0.29834333     0.70100
O19         O  0.94405675  0.22842709  0.31099231    -0.46800
C20         C  0.92927063  0.28341822  0.24096410     0.74800
O21         O  0.99289259  0.27696711  0.30548153    -0.58600
O22         O  0.94048613  0.25594805  0.23027903    -0.48700
O23         O  0.01709892  0.27645633  0.26399980    -0.55100
C24         C  0.01703908  0.19645120  0.25486112     0.85000
O25         O  0.93262092  0.20253229  0.27149405    -0.57000
O26         O  0.94047577  0.29048606  0.26583443    -0.60300
In27       In  0.72887730  0.48180995  0.10646206     1.36900
C28         C  0.77504438  0.52480288  0.08526148     0.77400
O29         O  0.69378552  0.52404312  0.09471151    -0.61000
O30         O  0.69446724  0.50749248  0.13870438    -0.51900
C31         C  0.69029918  0.43438279  0.08150600     0.70100
O32         O  0.71683239  0.44597700  0.06952120    -0.46800
C33         C  0.76655208  0.44094298  0.13916267     0.74800
O34         O  0.75514217  0.50801046  0.06908134    -0.58600
O35         O  0.74802976  0.46392166  0.15021112    -0.48700
O36         O  0.77194718  0.51840596  0.11199834    -0.55100
C37         C  0.68197083  0.52750884  0.12004016     0.85000
O38         O  0.68358677  0.44771004  0.10575969    -0.57000
O39         O  0.76544559  0.43948126  0.11179801    -0.60300
In40       In  0.73134963  0.46650143  0.33861598     1.36900
C41         C  0.77926866  0.51332622  0.32916732     0.77400
O42         O  0.69638380  0.50701954  0.32242000    -0.61000
O43         O  0.69020868  0.49082612  0.36611685    -0.51900
C44         C  0.69823268  0.42289790  0.30353191     0.70100
O45         O  0.72292476  0.44087145  0.29489960    -0.46800
C46         C  0.76663137  0.42709887  0.37542581     0.74800
O47         O  0.77327245  0.48957880  0.31123314    -0.58600
O48         O  0.74039247  0.44339318  0.38314372    -0.48700
O49         O  0.76091548  0.51275558  0.35164491    -0.55100
C50         C  0.68020632  0.51033324  0.34597107     0.85000
O51         O  0.69165382  0.42641741  0.33020094    -0.57000
O52         O  0.77384522  0.43020707  0.34887082    -0.60300
In53       In  0.74854488  0.02637272  0.25170094     1.36900
C54         C  0.69991615  0.98192924  0.23834263     0.77400
O55         O  0.78050433  0.98206736  0.23828387    -0.61000
O56         O  0.79189676  0.00525674  0.27888455    -0.51900
C57         C  0.78092249  0.07117955  0.21759586     0.70100
O58         O  0.75884595  0.05055578  0.20829476    -0.46800
C59         C  0.70811068  0.06304484  0.28661043     0.74800
O60         O  0.70923091  0.00525872  0.22117822    -0.58600
O61         O  0.73391350  0.04750259  0.29624738    -0.48700
O62         O  0.71619885  0.98112419  0.26201881    -0.55100
C63         C  0.79875347  0.98188515  0.26079421     0.85000
O64         O  0.78590416  0.06922300  0.24461461    -0.57000
O65         O  0.70436286  0.06074756  0.25952985    -0.60300
In66       In  0.71165351  0.02185100  0.43446018     1.36900
C67         C  0.65899807  0.98297761  0.41968077     0.77400
O68         O  0.74227444  0.97439631  0.42693014    -0.61000
O69         O  0.74038926  0.99551423  0.96840105    -0.51900
C70         C  0.75660846  0.05925124  0.40528556     0.70100
O71         O  0.73366316  0.04225792  0.39247342    -0.46800
C72         C  0.67022650  0.06793705  0.96354899     0.74800
O73         O  0.67671406  0.99844973  0.40089121    -0.58600
O74         O  0.68598304  0.04434070  0.97649942    -0.48700
O75         O  0.66792400  0.98810559  0.44564002    -0.55100
C76         C  0.75612527  0.97463668  0.45162714     0.85000
O77         O  0.75542180  0.05747193  0.43258231    -0.57000
O78         O  0.67936032  0.06927149  0.43659998    -0.60300
In79       In  0.50094022  0.25862727  0.13270263     1.36900
C80         C  0.46071330  0.31298550  0.12813162     0.77400
O81         O  0.45610458  0.22701693  0.12061147    -0.61000
O82         O  0.48032550  0.21548731  0.16042912    -0.51900
C83         C  0.53625450  0.22715798  0.09092715     0.70100
O84         O  0.51183872  0.24692360  0.08544559    -0.46800
C85         C  0.54851269  0.28698240  0.16656789     0.74800
O86         O  0.47961579  0.30274432  0.10769968    -0.58600
O87         O  0.52903762  0.26355797  0.17550849    -0.48700
O88         O  0.46270815  0.29554836  0.15106550    -0.55100
C89         C  0.45712088  0.20795265  0.14251032     0.85000
O90         O  0.54314124  0.22444340  0.11757300    -0.57000
O91         O  0.54389673  0.29486608  0.14028902    -0.60300
In92       In  0.49683402  0.23633269  0.43879517     1.36900
C93         C  0.45358059  0.18601030  0.45160228     0.77400
O94         O  0.45338428  0.27115356  0.44922386    -0.61000
O95         O  0.47332988  0.27273491  0.40641611    -0.51900
C96         C  0.53898253  0.27489780  0.47082276     0.70100
O97         O  0.51979961  0.25270222  0.48210733    -0.46800
C98         C  0.54110691  0.20044682  0.40685122     0.74800
O99         O  0.47383160  0.19834289  0.47024020    -0.58600
O100        O  0.52151370  0.22244431  0.39585981    -0.48700
O101        O  0.45608001  0.19922686  0.42674904    -0.55100
C102        C  0.45140669  0.28392129  0.42415117     0.85000
O103        O  0.53649884  0.27657734  0.44357135    -0.57000
O104        O  0.53778522  0.19724334  0.43395850    -0.60300
In105      In  0.22624277  0.53227915  0.08951512     1.36900
C106        C  0.27822959  0.49040881  0.09952517     0.77400
O107        O  0.19604291  0.48635827  0.10216631    -0.61000
O108        O  0.18146496  0.51161304  0.06362809    -0.51900
C109        C  0.19763582  0.57524952  0.12737362     0.70100
O110        O  0.22459535  0.55910626  0.13284428    -0.46800
C111        C  0.25847013  0.57267100  0.05186848     0.74800
O112        O  0.26019321  0.50266846  0.11972609    -0.58600
O113        O  0.23534358  0.55221174  0.04402066    -0.48700
O114        O  0.26925671  0.49917597  0.07432380    -0.55100
C115        C  0.17579816  0.48740596  0.08102000     0.85000
O116        O  0.18613085  0.57012005  0.10216252    -0.57000
O117        O  0.26320735  0.57370008  0.07897573    -0.60300
In118      In  0.23549570  0.51319921  0.35668441     1.36900
C119        C  0.18636849  0.46982911  0.34253847     0.77400
O120        O  0.26767016  0.46744409  0.34893256    -0.61000
O121        O  0.26834612  0.48916996  0.39135006    -0.51900
C122        C  0.27861108  0.55279525  0.32768211     0.70100
O123        O  0.25442724  0.53720292  0.31529901    -0.46800
C124        C  0.19722710  0.56181383  0.38061472     0.74800
O125        O  0.20245383  0.48681661  0.32361777    -0.58600
O126        O  0.21691719  0.54327816  0.39556495    -0.48700
O127        O  0.19526474  0.47569939  0.36845959    -0.55100
C128        C  0.27926771  0.46603956  0.37449002     0.85000
O129        O  0.28084837  0.54731760  0.35458859    -0.57000
O130        O  0.19745483  0.55505719  0.35384615    -0.60300
In131      In  0.47081353  0.75872549  0.18806994     1.36900
C132        C  0.51390263  0.71050890  0.17183992     0.77400
O133        O  0.51251230  0.79425893  0.17529955    -0.61000
O134        O  0.49453671  0.79754127  0.21868067    -0.51900
C135        C  0.42487792  0.79352248  0.15803377     0.70100
O136        O  0.44691622  0.77497511  0.14579728    -0.46800
C137        C  0.43090894  0.71736041  0.21900520     0.74800
O138        O  0.49135672  0.72203048  0.15493606    -0.58600
O139        O  0.44949944  0.73961052  0.23114150    -0.48700
O140        O  0.51409341  0.72361931  0.19691470    -0.55100
C141        C  0.51537532  0.80835534  0.19981506     0.85000
O142        O  0.42678644  0.79436282  0.18538893    -0.57000
O143        O  0.43260377  0.71749319  0.19168726    -0.60300
In144      In  0.45138253  0.73839173  0.37700026     1.36900
C145        C  0.49280998  0.79132009  0.38545964     0.77400
O146        O  0.49599256  0.70736866  0.39052054    -0.61000
O147        O  0.47441738  0.69641687  0.34930218    -0.51900
C148        C  0.40818397  0.70599113  0.41244154     0.70100
O149        O  0.42481242  0.73207501  0.42006893    -0.46800
C150        C  0.40951051  0.77245715  0.34206731     0.74800
O151        O  0.47758678  0.77664616  0.40619826    -0.58600
O152        O  0.43033467  0.75044052  0.33272946    -0.48700
O153        O  0.48758177  0.77803667  0.36089935    -0.55100
C154        C  0.49732637  0.68957960  0.36770205     0.85000
O155        O  0.41363817  0.69670245  0.38656737    -0.57000
O156        O  0.40907770  0.77534048  0.36935478    -0.60300
In157      In  0.23860632  0.97387087  0.18048360     1.36900
C158        C  0.19177199  0.01934074  0.19613208     0.77400
O159        O  0.27103620  0.01753139  0.19251659    -0.61000
O160        O  0.27703548  0.99760155  0.14984569    -0.51900
C161        C  0.27391528  0.92867336  0.21152330     0.70100
O162        O  0.24690585  0.94238690  0.22073077    -0.46800
C163        C  0.19879704  0.93433688  0.14814338     0.74800
O164        O  0.20958220  0.00330928  0.21447323    -0.58600
O165        O  0.22240116  0.95203343  0.13709728    -0.48700
O166        O  0.19802487  0.01179749  0.16998913    -0.55100
C167        C  0.28585118  0.01986978  0.16834413     0.85000
O168        O  0.28255029  0.93795716  0.18637398    -0.57000
O169        O  0.19697187  0.93601212  0.17545943    -0.60300
In170      In  0.22054225  0.96915789  0.50763160     1.36900
C171        C  0.17129512  0.01489192  0.51607930     0.77400
O172        O  0.25534988  0.01278703  0.51734343    -0.61000
O173        O  0.26419249  0.98525854  0.47845490    -0.51900
C174        C  0.25217126  0.93086570  0.04778124     0.70100
O175        O  0.23287451  0.95388961  0.05776836    -0.46800
C176        C  0.18517330  0.92472906  0.47528102     0.74800
O177        O  0.17808586  0.99753951  0.04227676    -0.58600
O178        O  0.20351042  0.94782412  0.46430934    -0.48700
O179        O  0.18857936  0.01266409  0.49306306    -0.55100
C180        C  0.27335339  0.00952270  0.49483015     0.85000
O181        O  0.25693903  0.92739267  0.51783373    -0.57000
O182        O  0.18563503  0.92402551  0.50269386    -0.60300
In183      In  0.98177092  0.75792196  0.00664644     1.36900
C184        C  0.93412490  0.80192771  0.99152026     0.77400
O185        O  0.94738107  0.71395196  0.99675202    -0.61000
O186        O  0.95336787  0.72906594  0.04095709    -0.51900
C187        C  0.02627447  0.72000388  0.97801473     0.70100
O188        O  0.01317227  0.74291112  0.46676049    -0.46800
C189        C  0.02718272  0.79589806  0.03524414     0.74800
O190        O  0.95501640  0.78996043  0.97322101    -0.58600
O191        O  0.01145734  0.77144399  0.04696482    -0.48700
O192        O  0.93778133  0.79128085  0.01713122    -0.55100
C193        C  0.93923601  0.70909282  0.02299834     0.85000
O194        O  0.01856596  0.71570286  0.00431982    -0.57000
O195        O  0.01865830  0.80138451  0.00929364    -0.60300
In196      In  0.01021884  0.74023727  0.30468180     1.36900
C197        C  0.96526282  0.68961079  0.30942991     0.77400
O198        O  0.96843473  0.77682024  0.31591386    -0.61000
O199        O  0.99305871  0.78357286  0.27553178    -0.51900
C200        C  0.04921632  0.76838381  0.34585611     0.70100
O201        O  0.02248216  0.75201778  0.35173024    -0.46800
C202        C  0.05429380  0.70920774  0.26924563     0.74800
O203        O  0.98771494  0.69527274  0.32848726    -0.58600
O204        O  0.03842482  0.73593541  0.26226183    -0.48700
O205        O  0.96620650  0.70969367  0.28809407    -0.55100
C206        C  0.97040049  0.79402072  0.29288271     0.85000
O207        O  0.05629504  0.76935612  0.31918560    -0.57000
O208        O  0.04737009  0.69846401  0.29439180    -0.60300
C209        C  0.06974469  0.78649707  0.36804372    -0.20000
C210        C  0.10494511  0.79202355  0.36409474     0.36200
C211        C  0.12270840  0.81281967  0.38386021    -0.26000
C212        C  0.10603518  0.82838806  0.40733882     0.02600
C213        C  0.07093451  0.82255538  0.41157044     0.27400
C214        C  0.05330437  0.80110477  0.39215001    -0.25100
N215        N  0.12248819  0.77660442  0.33999189    -0.82500
H216        H  0.14959984  0.81756758  0.38062624     0.13200
C217        C  0.12531625  0.85295554  0.42558949     0.02600
N218        N  0.05286666  0.84014281  0.43428447    -0.81100
H219        H  0.02621303  0.79722714  0.39496982     0.18100
C220        C  0.13172020  0.88558736  0.41455566    -0.25900
C221        C  0.15130230  0.90938975  0.43022691     0.36100
C222        C  0.16459043  0.90042258  0.45771192    -0.20000
C223        C  0.15799098  0.86771391  0.46876773    -0.25200
C224        C  0.13910757  0.84362613  0.45271492     0.27500
H225        H  0.12149066  0.89240493  0.39348416     0.13200
N226        N  0.15737936  0.94269139  0.41843277    -0.82500
H227        H  0.16845256  0.86059539  0.48967771     0.18100
N228        N  0.13553836  0.80930525  0.46310417    -0.81100
H229        H  0.14627718  0.94499071  0.39788564     0.33700
H230        H  0.14511849  0.96031497  0.43191266     0.38200
H231        H  0.14832501  0.80630390  0.48285269     0.33700
H232        H  0.10987983  0.80480178  0.46743185     0.30400
H233        H  0.02695206  0.83423305  0.43353430     0.33700
H234        H  0.06166410  0.83122919  0.45425682     0.30400
H235        H  0.12154938  0.75022778  0.34284884     0.38200
H236        H  0.14820984  0.78338012  0.34012008     0.33700
C237        C  0.05403708  0.81576811  0.05048440    -0.20000
C238        C  0.06732313  0.84652167  0.03913011     0.36200
C239        C  0.09303425  0.86388844  0.05444256    -0.26000
C240        C  0.10595701  0.85120866  0.08068280     0.02600
C241        C  0.09366693  0.81976917  0.09139508     0.27400
C242        C  0.06762333  0.80283068  0.07643670    -0.25100
N243        N  0.05453085  0.86031275  0.01236529    -0.82500
H244        H  0.10250689  0.88793965  0.04625089     0.13200
C245        C  0.13019318  0.87251893  0.09752099     0.02600
N246        N  0.10768773  0.80364871  0.11673545    -0.81100
H247        H  0.05845266  0.77883251  0.08496424     0.18100
C248        C  0.11990657  0.88555089  0.12451858    -0.25900
C249        C  0.14168253  0.90612431  0.14120915     0.36100
C250        C  0.17469392  0.91361770  0.13073239    -0.20000
C251        C  0.18471664  0.90100989  0.10347018    -0.25200
C252        C  0.16280250  0.88045949  0.08675281     0.27500
H253        H  0.09459508  0.87978872  0.13245961     0.13200
N254        N  0.13014618  0.91979403  0.16852669    -0.82500
H255        H  0.21000086  0.90651105  0.09556259     0.18100
N256        N  0.17357653  0.86730292  0.05907328    -0.81100
H257        H  0.10547937  0.91146754  0.17317628     0.33700
H258        H  0.12880030  0.94624813  0.16635401     0.38200
H259        H  0.19800091  0.87596621  0.05406327     0.33700
H260        H  0.17511103  0.84082673  0.06086055     0.30400
H261        H  0.08906371  0.80398090  0.13296108     0.33700
H262        H  0.12887456  0.81661192  0.12475066     0.30400
H263        H  0.02933850  0.86774007  0.01595360     0.38200
H264        H  0.06790182  0.88229365  0.00658723     0.33700
C265        C  0.38821883  0.79378087  0.32250388    -0.20000
C266        C  0.36476280  0.81812112  0.33326530     0.36200
C267        C  0.34600937  0.83799370  0.31358319    -0.26000
C268        C  0.34951689  0.83389164  0.28339312     0.02600
C269        C  0.37270578  0.80949490  0.27265841     0.27400
C270        C  0.39226684  0.79038432  0.29229064    -0.25100
N271        N  0.36010756  0.82295368  0.36401324    -0.82500
H272        H  0.32885055  0.85728537  0.32188741     0.13200
C273        C  0.32955715  0.85629874  0.26356887     0.02600
N274        N  0.37614734  0.80399859  0.24188928    -0.81100
H275        H  0.41101715  0.77292313  0.28382738     0.18100
C276        C  0.34649478  0.87530139  0.24215948    -0.25900
C277        C  0.32895473  0.89886454  0.22471863     0.36100
C278        C  0.29361897  0.90365603  0.22882434    -0.20000
C279        C  0.27664780  0.88432705  0.24995338    -0.25200
C280        C  0.29408967  0.86038601  0.26703644     0.27500
H281        H  0.37376837  0.87258680  0.23969734     0.13200
N282        N  0.34716890  0.91866761  0.20358872    -0.82500
H283        H  0.24950350  0.88761672  0.25291920     0.18100
N284        N  0.27589918  0.84007653  0.28784511    -0.81100
H285        H  0.37279160  0.91158623  0.20292744     0.33700
H286        H  0.34649612  0.94407370  0.21039175     0.38200
H287        H  0.25003173  0.84624144  0.28782100     0.33700
H288        H  0.27772131  0.81467883  0.28117990     0.30400
H289        H  0.39419987  0.78509433  0.23766815     0.33700
H290        H  0.35290255  0.79467744  0.23423151     0.30400
H291        H  0.38228538  0.83416496  0.37212770     0.38200
H292        H  0.34048827  0.84029576  0.36808769     0.33700
C293        C  0.27367229  0.90905706  0.06639082    -0.20000
C294        C  0.27971906  0.87444566  0.05963384     0.36200
C295        C  0.30304489  0.85582613  0.07641336    -0.26000
C296        C  0.32104963  0.87127233  0.09915246     0.02600
C297        C  0.31495880  0.90575229  0.10601913     0.27400
C298        C  0.29061714  0.92403995  0.09001900    -0.25100
N299        N  0.26191301  0.85814337  0.03611256    -0.82500
H300        H  0.30796423  0.82934444  0.07126429     0.13200
C301        C  0.34744311  0.85129297  0.11444418     0.02600
N302        N  0.33492051  0.92258976  0.12792899    -0.81100
H303        H  0.28623020  0.95066753  0.09496825     0.18100
C304        C  0.37919617  0.84655151  0.10106568    -0.25900
C305        C  0.40479226  0.82708807  0.11447880     0.36100
C306        C  0.39851821  0.81268192  0.14205136    -0.20000
C307        C  0.36650812  0.81700294  0.15511345    -0.25200
C308        C  0.34064621  0.83561028  0.14133558     0.27500
H309        H  0.38393643  0.85809635  0.08007602     0.13200
N310        N  0.43712930  0.82234030  0.10042432    -0.82500
H311        H  0.36145785  0.80523853  0.17595627     0.18100
N312        N  0.30717215  0.83734022  0.15390110    -0.81100
H313        H  0.43740921  0.83434052  0.08015771     0.33700
H314        H  0.45557132  0.83446672  0.11312493     0.38200
H315        H  0.30614315  0.82326073  0.17314547     0.33700
H316        H  0.30226105  0.86254768  0.15971503     0.30400
H317        H  0.32787162  0.94816859  0.12974310     0.33700
H318        H  0.32934408  0.91142173  0.14788640     0.30400
H319        H  0.27908989  0.86775251  0.51735552     0.38200
H320        H  0.26737946  0.83211004  0.03559063     0.33700
C321        C  0.05532411  0.69816261  0.46289501    -0.20000
C322        C  0.06109018  0.66412703  0.47151788     0.36200
C323        C  0.08556832  0.64460380  0.45684447    -0.26000
C324        C  0.10517305  0.65848181  0.43435877     0.02600
C325        C  0.09927101  0.69235738  0.42550477     0.27400
C326        C  0.07400161  0.71173000  0.43961838    -0.25100
N327        N  0.04328204  0.65196672  0.99897991    -0.82500
H328        H  0.08964902  0.61836034  0.46315132     0.13200
C329        C  0.13117813  0.63658320  0.42015166     0.02600
N330        N  0.11935414  0.70708962  0.40265742    -0.81100
H331        H  0.06969642  0.73787740  0.43312329     0.18100
C332        C  0.12863127  0.62976471  0.39033741    -0.25900
C333        C  0.15058365  0.60645559  0.37663266     0.36100
C334        C  0.17528814  0.58890741  0.39337518    -0.20000
C335        C  0.17835806  0.59660887  0.42309842    -0.25200
C336        C  0.15684665  0.62049642  0.43657342     0.27500
H337        H  0.10884029  0.64212023  0.37782307     0.13200
N338        N  0.14708005  0.60000487  0.34598867    -0.82500
H339        H  0.19734498  0.58361841  0.43600883     0.18100
N340        N  0.16063545  0.62821460  0.46697636    -0.81100
H341        H  0.12649249  0.61350445  0.33742478     0.33700
H342        H  0.16879191  0.60966082  0.33577573     0.38200
H343        H  0.18060392  0.61417630  0.47596502     0.33700
H344        H  0.16747953  0.65385646  0.46871090     0.30400
H345        H  0.11194264  0.73224897  0.39899504     0.33700
H346        H  0.14455554  0.70801350  0.40985454     0.30400
H347        H  0.05239121  0.66491582  0.01726763     0.38200
H348        H  0.04995641  0.62646632  0.00203381     0.33700
C349        C  0.30174179  0.57640430  0.31208475    -0.20000
C350        C  0.33456910  0.58458110  0.32267015     0.36200
C351        C  0.35528083  0.60711700  0.30684717    -0.26000
C352        C  0.34336840  0.62312898  0.28158180     0.02600
C353        C  0.31028967  0.61564796  0.27146553     0.27400
C354        C  0.29020316  0.59180839  0.28642107    -0.25100
N355        N  0.34705121  0.56977120  0.34915121    -0.82500
H356        H  0.38078309  0.61258548  0.31447044     0.13200
C357        C  0.36580316  0.64760683  0.26593505     0.02600
N358        N  0.29692766  0.63286266  0.24641054    -0.81100
H359        H  0.26489015  0.58607007  0.27848867     0.18100
C360        C  0.37185135  0.64294267  0.23617190    -0.25900
C361        C  0.39276904  0.66531930  0.22047418     0.36100
C362        C  0.40887011  0.69282526  0.23501788    -0.20000
C363        C  0.40345832  0.69690086  0.26502905    -0.25200
C364        C  0.38135553  0.67521991  0.28044665     0.27500
H365        H  0.36033136  0.62145785  0.22511572     0.13200
N366        N  0.39786763  0.65980983  0.18985480    -0.82500
H367        H  0.41624985  0.71718510  0.27648296     0.18100
N368        N  0.37414795  0.68141905  0.31064889    -0.81100
H369        H  0.38299956  0.63952458  0.18238499     0.33700
H370        H  0.42321354  0.65253027  0.18688894     0.38200
H371        H  0.38730298  0.70283312  0.31805827     0.33700
H372        H  0.34825985  0.68716385  0.31240742     0.30400
H373        H  0.27210299  0.62481609  0.24212078     0.33700
H374        H  0.29540236  0.65877560  0.25149226     0.30400
H375        H  0.33337188  0.58065138  0.36630973     0.38200
H376        H  0.37245779  0.57654059  0.35260063     0.33700
C377        C  0.17986799  0.59722280  0.14889414    -0.20000
C378        C  0.19486388  0.60675568  0.17567723     0.36200
C379        C  0.17550242  0.62505766  0.19625085    -0.26000
C380        C  0.14186063  0.63463046  0.19027170     0.02600
C381        C  0.12719198  0.62584380  0.16335592     0.27400
C382        C  0.14632344  0.60736988  0.14295548    -0.25100
N383        N  0.22960753  0.59803796  0.18186282    -0.82500
H384        H  0.18675083  0.63227254  0.21686983     0.13200
C385        C  0.12201083  0.65439317  0.21194808     0.02600
N386        N  0.09267846  0.63541311  0.15704459    -0.81100
H387        H  0.13460360  0.60019603  0.12252879     0.18100
C388        C  0.11196746  0.68761278  0.20504441    -0.25900
C389        C  0.09044576  0.70633048  0.22352789     0.36100
C390        C  0.07868061  0.69142588  0.24964630    -0.20000
C391        C  0.08972826  0.65843250  0.25692447    -0.25200
C392        C  0.11100567  0.63964733  0.23820494     0.27500
H393        H  0.12061754  0.69876869  0.18482185     0.13200
N394        N  0.08034591  0.74022562  0.21562730    -0.82500
H395        H  0.08092117  0.64680652  0.27689164     0.18100
N396        N  0.12070484  0.60538493  0.24533371    -0.81100
H397        H  0.09035915  0.74684345  0.19534698     0.33700
H398        H  0.09116540  0.75694226  0.23073639     0.38200
H399        H  0.11051290  0.59830956  0.26543264     0.33700
H400        H  0.10984592  0.58921769  0.22980845     0.30400
H401        H  0.08569986  0.62724616  0.13623319     0.33700
H402        H  0.07689571  0.62259438  0.17168182     0.30400
H403        H  0.24495611  0.61143397  0.16725936     0.38200
H404        H  0.23639889  0.60634917  0.20265463     0.33700
C405        C  0.38406968  0.68817055  0.43225847    -0.20000
C406        C  0.37298133  0.65439765  0.42706313     0.36200
C407        C  0.34998998  0.63898910  0.44652500    -0.26000
C408        C  0.33787434  0.65638926  0.47114084     0.02600
C409        C  0.35448551  0.67987098  0.97514829     0.27400
C410        C  0.37187294  0.70549369  0.45691912    -0.25100
N411        N  0.38550754  0.63555917  0.40245061    -0.82500
H412        H  0.34206529  0.61290848  0.44286456     0.13200
C413        C  0.31948234  0.62866382  0.98993987     0.02600
N414        N  0.34435341  0.69711064  0.00137064    -0.81100
H415        H  0.38008276  0.73139490  0.46098509     0.18100
C416        C  0.33106851  0.62376993  0.01843867    -0.25900
C417        C  0.31157069  0.60597142  0.03901061     0.36100
C418        C  0.27937893  0.59272093  0.03101399    -0.20000
C419        C  0.26782233  0.59744848  0.00237906    -0.25200
C420        C  0.28746299  0.61537188  0.98180087     0.27500
H421        H  0.35593903  0.63332221  0.02450443     0.13200
N422        N  0.32487193  0.60070826  0.06776307    -0.82500
H423        H  0.24330553  0.58724752  0.99604390     0.18100
N424        N  0.27288802  0.62670295  0.45386563    -0.81100
H425        H  0.34844757  0.61269647  0.07020595     0.33700
H426        H  0.32937343  0.57466844  0.07010085     0.38200
H427        H  0.24991069  0.61380793  0.45080627     0.33700
H428        H  0.26784174  0.65251446  0.45048961     0.30400
H429        H  0.35612759  0.72091064  0.00290961     0.33700
H430        H  0.31819144  0.70160228  0.00006427     0.30400
H431        H  0.41158694  0.63181219  0.40552399     0.38200
H432        H  0.37451618  0.61134338  0.40168715     0.33700
C433        C  0.30370972  0.43911191  0.38328779    -0.20000
C434        C  0.32734132  0.44372074  0.40611946     0.36200
C435        C  0.35143663  0.41800582  0.41189655    -0.26000
C436        C  0.35196906  0.38770290  0.39567084     0.02600
C437        C  0.32733637  0.38236153  0.37392728     0.27400
C438        C  0.30383573  0.40828865  0.36766855    -0.25100
N439        N  0.32711782  0.47448285  0.42310216    -0.82500
H440        H  0.36998606  0.42159334  0.42904885     0.13200
C441        C  0.37763338  0.36114830  0.40238733     0.02600
N442        N  0.32571789  0.35028913  0.35884936    -0.81100
H443        H  0.28526070  0.40426356  0.35060518     0.18100
C444        C  0.37060478  0.33750504  0.42429287    -0.25900
C445        C  0.39400576  0.31173205  0.43134700     0.36100
C446        C  0.42540953  0.30983787  0.41637320    -0.20000
C447        C  0.43216207  0.33328265  0.39406507    -0.25200
C448        C  0.40861368  0.35902937  0.38698297     0.27500
H449        H  0.34658090  0.33906877  0.43578310     0.13200
N450        N  0.38570602  0.28717652  0.45335899    -0.82500
H451        H  0.45614414  0.33190854  0.38250421     0.18100
N452        N  0.41637921  0.38351780  0.36476677    -0.81100
H453        H  0.36183310  0.29230622  0.46237774     0.33700
H454        H  0.38377989  0.26342822  0.44317436     0.38200
H455        H  0.44044085  0.37883121  0.35594091     0.33700
H456        H  0.39896544  0.38022186  0.34784234     0.30400
H457        H  0.30546251  0.35008960  0.34412397     0.33700
H458        H  0.34789513  0.34763562  0.34654869     0.30400
H459        H  0.33399062  0.49450495  0.40937265     0.38200
H460        H  0.34559890  0.47344034  0.43941513     0.33700
C461        C  0.30226295  0.03299208  0.48854831    -0.20000
C462        C  0.32810133  0.02527535  0.46810616     0.36200
C463        C  0.35481242  0.04870327  0.46354977    -0.26000
C464        C  0.35578807  0.07991184  0.47841758     0.02600
C465        C  0.32985327  0.08788738  0.49841942     0.27400
C466        C  0.30379388  0.06416050  0.50365888    -0.25100
N467        N  0.32738465  0.99377032  0.45217389    -0.82500
H468        H  0.37453786  0.04302142  0.44780810     0.13200
C469        C  0.38222048  0.10550729  0.47104884     0.02600
N470        N  0.32929510  0.12068605  0.51238443    -0.81100
H471        H  0.28399919  0.07052246  0.51914121     0.18100
C472        C  0.37618351  0.12762748  0.44782025    -0.25900
C473        C  0.39900927  0.15404509  0.44114761     0.36100
C474        C  0.42875486  0.15842827  0.45811199    -0.20000
C475        C  0.43496415  0.13588599  0.48121563    -0.25200
C476        C  0.41212272  0.10924035  0.48768984     0.27500
H477        H  0.35311122  0.12462551  0.43518324     0.13200
N478        N  0.39163183  0.17681640  0.41755679    -0.82500
H479        H  0.45790888  0.13878837  0.49400968     0.18100
N480        N  0.41950923  0.08556393  0.51061467    -0.81100
H481        H  0.36919478  0.16964905  0.40698078     0.33700
H482        H  0.38716741  0.20088932  0.42649888     0.38200
H483        H  0.44239011  0.09309321  0.01778620     0.33700
H484        H  0.40098943  0.08841842  0.52672528     0.30400
H485        H  0.30795039  0.12299393  0.52580707     0.33700
H486        H  0.35053556  0.12235847  0.52594854     0.30400
H487        H  0.30689291  0.99496159  0.43773787     0.38200
H488        H  0.34918443  0.99131190  0.43931202     0.33700
C489        C  0.43719000  0.34221455  0.12490464    -0.20000
C490        C  0.42697847  0.36235879  0.14885004     0.36200
C491        C  0.40266354  0.38823629  0.14476835    -0.26000
C492        C  0.38787918  0.39399713  0.11739372     0.02600
C493        C  0.39872106  0.37424748  0.09338353     0.27400
C494        C  0.42361521  0.34902909  0.09734167    -0.25100
N495        N  0.44134714  0.35657144  0.17714280    -0.82500
H496        H  0.39496389  0.40383480  0.16308186     0.13200
C497        C  0.36045081  0.42001014  0.11420832     0.02600
N498        N  0.38367155  0.37913292  0.06521459    -0.81100
H499        H  0.43140201  0.33357566  0.07896111     0.18100
C500        C  0.36302900  0.44469376  0.09227780    -0.25900
C501        C  0.33654415  0.46792488  0.08708250     0.36100
C502        C  0.30727306  0.46730053  0.10486621    -0.20000
C503        C  0.30523171  0.44363944  0.12756778    -0.25200
C504        C  0.33113698  0.41949809  0.13203942     0.27500
H505        H  0.38571144  0.44557814  0.07891226     0.13200
N506        N  0.33939552  0.49227510  0.06394910    -0.82500
H507        H  0.28265333  0.44305210  0.14108403     0.18100
N508        N  0.32727765  0.39381467  0.15400102    -0.81100
H509        H  0.36219637  0.48893345  0.05258455     0.33700
H510        H  0.34060025  0.51637598  0.07351384     0.38200
H511        H  0.30430167  0.39695627  0.16514883     0.33700
H512        H  0.32588939  0.37024412  0.14346211     0.30400
H513        H  0.39453598  0.36268551  0.04990870     0.33700
H514        H  0.35797804  0.37249911  0.06676142     0.30400
H515        H  0.46732059  0.36213215  0.17592137     0.38200
H516        H  0.43095147  0.37339986  0.19238865     0.33700
C517        C  0.43302953  0.17909166  0.14588663    -0.20000
C518        C  0.43885304  0.15190746  0.16536794     0.36200
C519        C  0.41549689  0.12474749  0.16646984    -0.26000
C520        C  0.38669381  0.12423483  0.14853090     0.02600
C521        C  0.38069575  0.15127271  0.12926264     0.27400
C522        C  0.40395590  0.17832820  0.12804623    -0.25100
N523        N  0.46831013  0.15181700  0.18385469    -0.82500
H524        H  0.41949222  0.10403574  0.18160285     0.13200
C525        C  0.36099666  0.09721741  0.15247590     0.02600
N526        N  0.35056683  0.15147229  0.11154492    -0.81100
H527        H  0.39916438  0.19910012  0.11315630     0.18100
C528        C  0.33453714  0.10324210  0.17208040    -0.25900
C529        C  0.30983696  0.07837903  0.17761120     0.36100
C530        C  0.31127663  0.04686481  0.16261461    -0.20000
C531        C  0.33743654  0.04118914  0.14231754    -0.25200
C532        C  0.36258274  0.06607338  0.13727275     0.27500
H533        H  0.33350885  0.12740323  0.18348327     0.13200
N534        N  0.28299062  0.08544731  0.19801237    -0.82500
H535        H  0.33862672  0.01709805  0.13084062     0.18100
N536        N  0.38992162  0.05972190  0.11722305    -0.81100
H537        H  0.28363764  0.11094275  0.20454789     0.33700
H538        H  0.28791871  0.07126022  0.21673901     0.38200
H539        H  0.38764649  0.03540423  0.10814941     0.33700
H540        H  0.38754165  0.07698138  0.10008430     0.30400
H541        H  0.34957400  0.17355524  0.09892395     0.33700
H542        H  0.35224517  0.13103976  0.09702804     0.30400
H543        H  0.48970451  0.14945334  0.17049947     0.38200
H544        H  0.46819024  0.13044401  0.19736192     0.33700
C545        C  0.90746471  0.82673044  0.98411061    -0.20000
C546        C  0.91433539  0.85487425  0.96609023     0.36200
C547        C  0.88856255  0.87895982  0.96102392    -0.26000
C548        C  0.85639560  0.87532769  0.97381622     0.02600
C549        C  0.84941204  0.84705866  0.99157211     0.27400
C550        C  0.87516299  0.82309849  0.99673919    -0.25100
N551        N  0.94616889  0.85283243  0.44722502    -0.82500
H552        H  0.89216089  0.89450910  0.44351286     0.13200
C553        C  0.82983118  0.90094169  0.96806558     0.02600
N554        N  0.81611092  0.84271201  0.00397690    -0.81100
H555        H  0.87003196  0.80143010  0.01060770     0.18100
C556        C  0.81132856  0.89496001  0.45524404    -0.25900
C557        C  0.78461119  0.91696441  0.44740532     0.36100
C558        C  0.78253672  0.94962966  0.46029584    -0.20000
C559        C  0.79993281  0.95325996  0.98003674    -0.25200
C560        C  0.82626574  0.92999686  0.98580476     0.27500
H561        H  0.81301584  0.86990121  0.44544334     0.13200
N562        N  0.75967477  0.90622204  0.42644495    -0.82500
H563        H  0.79743632  0.97591654  0.99334596     0.18100
N564        N  0.84968349  0.93591297  0.00927506    -0.81100
H565        H  0.76517290  0.88174902  0.41878922     0.33700
H566        H  0.73625684  0.90466421  0.43714343     0.38200
H567        H  0.84385530  0.95868889  0.01998087     0.33700
H568        H  0.84637356  0.91646161  0.02446965     0.30400
H569        H  0.81500419  0.82028397  0.01612776     0.33700
H570        H  0.81196843  0.86273862  0.01855078     0.30400
H571        H  0.96468058  0.86315491  0.97093722     0.38200
H572        H  0.94271029  0.86975688  0.42998450     0.33700
C573        C  0.63107427  0.95925789  0.41219957    -0.20000
C574        C  0.60175326  0.95661229  0.42980010     0.36200
C575        C  0.57777946  0.93083957  0.42406064    -0.26000
C576        C  0.58301592  0.90703541  0.40165520     0.02600
C577        C  0.61214688  0.91004267  0.38383595     0.27400
C578        C  0.63545687  0.93660490  0.38889623    -0.25100
N579        N  0.59668041  0.97982128  0.45363748    -0.82500
H580        H  0.55526575  0.92876739  0.43754216     0.13200
C581        C  0.55880688  0.87808737  0.39799770     0.02600
N582        N  0.61869386  0.88524081  0.36148841    -0.81100
H583        H  0.65821088  0.93838497  0.37567766     0.18100
C584        C  0.54299876  0.87267857  0.37102621    -0.25900
C585        C  0.52116353  0.84476141  0.36645352     0.36100
C586        C  0.51490100  0.82168663  0.38945001    -0.20000
C587        C  0.53012306  0.82758018  0.41659135    -0.25200
C588        C  0.55227418  0.85526945  0.42101830     0.27500
H589        H  0.54774679  0.89038359  0.35345797     0.13200
N590        N  0.50513829  0.84002457  0.33863077    -0.82500
H591        H  0.52543913  0.80997235  0.43423459     0.18100
N592        N  0.56879805  0.85987274  0.44862517    -0.81100
H593        H  0.51281110  0.85890870  0.32404671     0.33700
H594        H  0.47894016  0.84309970  0.34156690     0.38200
H595        H  0.56927072  0.82463546  0.96065062     0.33700
H596        H  0.59493307  0.85675510  0.44534552     0.30400
H597        H  0.64123409  0.89095012  0.35045623     0.33700
H598        H  0.62254241  0.86179058  0.37167535     0.30400
H599        H  0.59393449  0.00423153  0.44494211     0.38200
H600        H  0.57402028  0.97430016  0.46455901     0.33700
C601        C  0.64981610  0.09364732  0.97941521    -0.20000
C602        C  0.65104373  0.12863124  0.97237197     0.36200
C603        C  0.63258846  0.15214164  0.98937018    -0.26000
C604        C  0.61214396  0.14117569  0.01250118     0.02600
C605        C  0.61025709  0.10621044  0.01906054     0.27400
C606        C  0.62938843  0.08284182  0.00263537    -0.25100
N607        N  0.67184329  0.14028917  0.94871266    -0.82500
H608        H  0.63392613  0.17907795  0.98449724     0.13200
C609        C  0.59339700  0.16642069  0.03038743     0.02600
N610        N  0.58901168  0.09465923  0.04249425    -0.81100
H611        H  0.64070908  0.05626986  0.51102696     0.18100
C612        C  0.55821152  0.17026559  0.02656030    -0.25900
C613        C  0.53903356  0.19134137  0.04520471     0.36100
C614        C  0.55549253  0.20839084  0.06834283    -0.20000
C615        C  0.59085152  0.20532493  0.07148137    -0.25200
C616        C  0.61002019  0.18466289  0.05263602     0.27500
H617        H  0.54562870  0.15612845  0.00939329     0.13200
N618        N  0.50277994  0.19378468  0.04179163    -0.82500
H619        H  0.60346574  0.21864257  0.08910130     0.18100
N620        N  0.64616543  0.18144430  0.05642581    -0.81100
H621        H  0.49453805  0.17806530  0.02483437     0.33700
H622        H  0.49721240  0.21871127  0.03550264     0.38200
H623        H  0.65451558  0.19689574  0.07353327     0.33700
H624        H  0.65119975  0.15632346  0.06251149     0.30400
H625        H  0.60473165  0.06686548  0.54925789     0.33700
H626        H  0.59897774  0.10448328  0.06183595     0.30400
H627        H  0.66088012  0.13121535  0.92952623     0.38200
H628        H  0.67114369  0.16683359  0.94734720     0.33700
C629        C  0.94753331  0.82365128  0.28725857    -0.20000
C630        C  0.95162323  0.84573781  0.26317526     0.36200
C631        C  0.92905918  0.87339628  0.25956290    -0.26000
C632        C  0.90217332  0.87897014  0.27906737     0.02600
C633        C  0.89797415  0.85702482  0.30291241     0.27400
C634        C  0.92075722  0.82987885  0.30689603    -0.25100
N635        N  0.97846695  0.84016810  0.24247959    -0.82500
H636        H  0.93189016  0.89020158  0.24107769     0.13200
C637        C  0.87690084  0.90628923  0.27344356     0.02600
N638        N  0.87005904  0.86205081  0.32267375    -0.81100
H639        H  0.91721241  0.81318507  0.32535530     0.18100
C640        C  0.84611949  0.89753811  0.26006297    -0.25900
C641        C  0.82022940  0.92176860  0.25612193     0.36100
C642        C  0.82540180  0.95570178  0.26544497    -0.20000
C643        C  0.85624693  0.96447660  0.27893747    -0.25200
C644        C  0.88209367  0.94001933  0.28306092     0.27500
H645        H  0.84206106  0.87143675  0.25321173     0.13200
N646        N  0.78830650  0.91179632  0.24343000    -0.82500
H647        H  0.86023144  0.99046967  0.28609490     0.18100
N648        N  0.91348191  0.94919346  0.29702864    -0.81100
H649        H  0.78861794  0.88599386  0.23779946     0.33700
H650        H  0.76953757  0.91464782  0.25937055     0.38200
H651        H  0.91341421  0.97501808  0.30258081     0.33700
H652        H  0.91491706  0.93568870  0.31654161     0.30400
H653        H  0.87012213  0.84341493  0.33885233     0.33700
H654        H  0.87378285  0.88538971  0.33317047     0.30400
H655        H  0.97280207  0.81774911  0.23118204     0.38200
H656        H  0.97881861  0.85957089  0.22696798     0.33700
C657        C  0.67196947  0.95754985  0.23184517    -0.20000
C658        C  0.64710839  0.96393745  0.21027316     0.36200
C659        C  0.61979310  0.94104756  0.20677317    -0.26000
C660        C  0.61747440  0.91142277  0.22358530     0.02600
C661        C  0.64306212  0.90416842  0.24406629     0.27400
C662        C  0.66963569  0.92758830  0.24838250    -0.25100
N663        N  0.64940325  0.99360137  0.19214756    -0.82500
H664        H  0.60058861  0.94587633  0.19040584     0.13200
C665        C  0.59022206  0.88632714  0.21738634     0.02600
N666        N  0.64269692  0.87240364  0.25953260    -0.81100
H667        H  0.68896893  0.92210278  0.26448087     0.18100
C668        C  0.59516691  0.86326678  0.19458874    -0.25900
C669        C  0.57118808  0.83772395  0.18849791     0.36100
C670        C  0.54137002  0.83510906  0.20569237    -0.20000
C671        C  0.53630274  0.85859102  0.22842327    -0.25200
C672        C  0.56029452  0.88445831  0.23424889     0.27500
H673        H  0.61823696  0.86492397  0.18175075     0.13200
N674        N  0.57748643  0.81404949  0.16524761    -0.82500
H675        H  0.51334308  0.85706176  0.24139259     0.18100
N676        N  0.55395914  0.90931763  0.25660225    -0.81100
H677        H  0.60007554  0.82003793  0.15438460     0.33700
H678        H  0.58125927  0.79022696  0.17467680     0.38200
H679        H  0.53048452  0.90477282  0.26655970     0.33700
H680        H  0.57241134  0.90640288  0.27272511     0.30400
H681        H  0.66399862  0.87042951  0.27301392     0.33700
H682        H  0.62145865  0.87227639  0.27317881     0.30400
H683        H  0.67045072  0.99031922  0.17851285     0.38200
H684        H  0.62824748  0.99527105  0.17846906     0.33700
C685        C  0.56600119  0.18020274  0.38946870    -0.20000
C686        C  0.58349857  0.15194258  0.40141278     0.36200
C687        C  0.60664704  0.13361810  0.38409902    -0.26000
C688        C  0.61330715  0.14300633  0.35531230     0.02600
C689        C  0.59594911  0.17104399  0.34323654     0.27400
C690        C  0.57231668  0.18918107  0.36035376    -0.25100
N691        N  0.57745132  0.14144455  0.43088830    -0.82500
H692        H  0.61966838  0.11174587  0.39310740     0.13200
C693        C  0.63805692  0.12261970  0.33803652     0.02600
N694        N  0.60261023  0.18111291  0.31374568    -0.81100
H695        H  0.55909223  0.21070956  0.35098760     0.18100
C696        C  0.62662553  0.10471103  0.31354425    -0.25900
C697        C  0.64890053  0.08429386  0.29712212     0.36100
C698        C  0.68362017  0.08220680  0.30502681    -0.20000
C699        C  0.69490415  0.09957594  0.32991621    -0.25200
C700        C  0.67249731  0.11988675  0.34645012     0.27500
H701        H  0.60003132  0.10627349  0.30750866     0.13200
N702        N  0.63624481  0.06523246  0.27267573    -0.82500
H703        H  0.72143729  0.09824844  0.33591414     0.18100
N704        N  0.68463561  0.13819637  0.37147073    -0.81100
H705        H  0.61026707  0.06967681  0.26969159     0.33700
H706        H  0.63879237  0.03937721  0.27758930     0.38200
H707        H  0.71048522  0.13335350  0.37487275     0.33700
H708        H  0.68242418  0.16418499  0.36704033     0.30400
H709        H  0.58772753  0.20213771  0.30811029     0.33700
H710        H  0.62796520  0.18904198  0.31262079     0.30400
H711        H  0.58802076  0.15997317  0.44449409     0.38200
H712        H  0.59044927  0.11886451  0.43545609     0.33700
C713        C  0.52376655  0.66298903  0.36323913    -0.20000
C714        C  0.55463538  0.66378261  0.37907866     0.36200
C715        C  0.57857690  0.63761723  0.37527993    -0.26000
C716        C  0.57267632  0.61081667  0.35587000     0.02600
C717        C  0.54209312  0.60986767  0.33984697     0.27400
C718        C  0.51796954  0.63612157  0.34357501    -0.25100
N719        N  0.56185069  0.69135443  0.39875281    -0.82500
H720        H  0.60222811  0.63822103  0.38736552     0.13200
C721        C  0.59931360  0.58434990  0.35254834     0.02600
N722        N  0.53527106  0.58184587  0.32054270    -0.81100
H723        H  0.49432367  0.63527370  0.33150520     0.18100
C724        C  0.60090270  0.55749129  0.37253677    -0.25900
C725        C  0.62719442  0.53311371  0.37122978     0.36100
C726        C  0.65216750  0.53552790  0.34917162    -0.20000
C727        C  0.65057730  0.56278136  0.32943181    -0.25200
C728        C  0.62477335  0.58747595  0.33118885     0.27500
H729        H  0.58170388  0.55579143  0.38938524     0.13200
N730        N  0.62852883  0.50608320  0.39218960    -0.82500
H731        H  0.67001323  0.56526294  0.31286155     0.18100
N732        N  0.62509333  0.61646114  0.31215712    -0.81100
H733        H  0.60882518  0.50855537  0.40733185     0.33700
H734        H  0.62426093  0.48322558  0.38109532     0.38200
H735        H  0.64619263  0.61556385  0.29832212     0.33700
H736        H  0.60360490  0.61509507  0.29887593     0.30400
H737        H  0.51137438  0.58462355  0.31088354     0.33700
H738        H  0.55307412  0.58262580  0.30368717     0.30400
H739        H  0.56422483  0.71350534  0.38634950     0.38200
H740        H  0.58525825  0.68771857  0.40905040     0.33700
C741        C  0.80592737  0.53953799  0.32470205    -0.20000
C742        C  0.80196937  0.57298683  0.33561555     0.36200
C743        C  0.82874480  0.59650204  0.33268774    -0.26000
C744        C  0.85933437  0.58738004  0.31903131     0.02600
C745        C  0.86311156  0.55420722  0.30767872     0.27400
C746        C  0.83627063  0.53066315  0.31047105    -0.25100
N747        N  0.77067127  0.58306372  0.34935680    -0.82500
H748        H  0.82583240  0.62211217  0.34113853     0.13200
C749        C  0.88682611  0.61318633  0.31617047     0.02600
N750        N  0.89420587  0.54460944  0.29340625    -0.81100
H751        H  0.83932918  0.50504827  0.30208549     0.18100
C752        C  0.91791041  0.60845448  0.33064275    -0.25900
C753        C  0.94416582  0.63282307  0.32873034     0.36100
C754        C  0.93914661  0.66244945  0.31187506    -0.20000
C755        C  0.90818172  0.66676561  0.29711981    -0.25200
C756        C  0.88193746  0.64262852  0.29925642     0.27500
H757        H  0.92154905  0.58576488  0.34361537     0.13200
N758        N  0.97584243  0.62741938  0.34361421    -0.82500
H759        H  0.90417667  0.68943199  0.28419870     0.18100
N760        N  0.85023214  0.64791834  0.28438173    -0.81100
H761        H  0.97519879  0.60463074  0.35528280     0.33700
H762        H  0.99479158  0.62461478  0.32782011     0.38200
H763        H  0.85055412  0.67098917  0.27310578     0.33700
H764        H  0.84773992  0.62868085  0.26878197     0.30400
H765        H  0.89303794  0.51927398  0.28646148     0.33700
H766        H  0.89652318  0.55949262  0.27470195     0.30400
H767        H  0.75148321  0.58190594  0.33365040     0.38200
H768        H  0.77197045  0.60840782  0.35627043     0.33700
C769        C  0.57410455  0.30434263  0.18548648    -0.20000
C770        C  0.58917663  0.33574070  0.17747153     0.36200
C771        C  0.61124540  0.35245370  0.19697013    -0.26000
C772        C  0.61910959  0.33847000  0.22416401     0.02600
C773        C  0.60508515  0.30666407  0.23182808     0.27400
C774        C  0.58254216  0.29010039  0.21257495    -0.25100
N775        N  0.58116643  0.35130763  0.15006624    -0.82500
H776        H  0.62194252  0.37693273  0.19115187     0.13200
C777        C  0.64049365  0.35841616  0.24495696     0.02600
N778        N  0.61378067  0.29138407  0.25918976    -0.81100
H779        H  0.57143383  0.26596485  0.21882374     0.18100
C780        C  0.62622589  0.36925563  0.27135901    -0.25900
C781        C  0.64454018  0.39002894  0.29085725     0.36100
C782        C  0.67819158  0.40011971  0.28393137    -0.20000
C783        C  0.69257398  0.38888100  0.25759554    -0.25200
C784        C  0.67419076  0.36796911  0.23817280     0.27500
H785        H  0.60024999  0.36216703  0.27641559     0.13200
N786        N  0.62865649  0.40154134  0.31728024    -0.82500
H787        H  0.71836550  0.39625931  0.25221698     0.18100
N788        N  0.68962845  0.35623475  0.21164716    -0.81100
H789        H  0.60421889  0.39131000  0.31931611     0.33700
H790        H  0.62563384  0.42791923  0.31573758     0.38200
H791        H  0.71454409  0.36534021  0.20990997     0.33700
H792        H  0.69132606  0.32971825  0.21279689     0.30400
H793        H  0.60135675  0.26803031  0.26163193     0.33700
H794        H  0.63984584  0.28611683  0.25878441     0.30400
H795        H  0.59263229  0.33669113  0.13375523     0.38200
H796        H  0.59206417  0.37550385  0.14871907     0.33700
C797        C  0.65579994  0.55331481  0.12692254    -0.20000
C798        C  0.63366592  0.54984553  0.15093956     0.36200
C799        C  0.60981401  0.57559808  0.15679115    -0.26000
C800        C  0.60753372  0.60435745  0.13899344     0.02600
C801        C  0.62923861  0.60776484  0.11485677     0.27400
C802        C  0.65305517  0.58205804  0.10893474    -0.25100
N803        N  0.63519890  0.52014951  0.16907776    -0.82500
H804        H  0.59295271  0.57335985  0.17533733     0.13200
C805        C  0.58330462  0.63151212  0.14674104     0.02600
N806        N  0.62760252  0.63772334  0.09701239    -0.81100
H807        H  0.67001073  0.58480706  0.09050639     0.18100
C808        C  0.59400412  0.65728301  0.16566286    -0.25900
C809        C  0.57176430  0.68343142  0.17404832     0.36100
C810        C  0.53822057  0.68377613  0.16307179    -0.20000
C811        C  0.52763736  0.65800780  0.14389329    -0.25200
C812        C  0.54986210  0.63158643  0.13581299     0.27500
H813        H  0.61983291  0.65691988  0.17388660     0.13200
N814        N  0.58328531  0.70989332  0.19328465    -0.82500
H815        H  0.50179403  0.65812209  0.13571429     0.18100
N816        N  0.53847278  0.60445060  0.11718215    -0.81100
H817        H  0.60848265  0.70566959  0.19955818     0.33700
H818        H  0.58322878  0.73252874  0.18145917     0.38200
H819        H  0.51296828  0.60794308  0.11151681     0.33700
H820        H  0.55242535  0.60569506  0.09786907     0.30400
H821        H  0.64578095  0.63654880  0.08043342     0.33700
H822        H  0.60386348  0.63803600  0.08682320     0.30400
H823        H  0.62796626  0.49926349  0.15636937     0.38200
H824        H  0.61748612  0.52187657  0.18598512     0.33700
C825        C  0.91498610  0.68209957  0.03178043    -0.20000
C826        C  0.89434468  0.68556994  0.05674447     0.36200
C827        C  0.87183426  0.65919626  0.06429043    -0.26000
C828        C  0.86956993  0.62936548  0.04752000     0.02600
C829        C  0.89002198  0.62597070  0.02246779     0.27400
C830        C  0.91223850  0.65253158  0.01468380    -0.25100
N831        N  0.89586490  0.71604009  0.07407413    -0.82500
H832        H  0.85578080  0.66194145  0.08330997     0.13200
C833        C  0.84602079  0.60175264  0.05679718     0.02600
N834        N  0.88856316  0.59533472  0.00535114    -0.81100
H835        H  0.92805983  0.64981180  0.99551967     0.18100
C836        C  0.82020841  0.59062427  0.03794206    -0.25900
C837        C  0.79690654  0.56525201  0.04641476     0.36100
C838        C  0.79964624  0.55054966  0.07436934    -0.20000
C839        C  0.82568924  0.56163761  0.09305799    -0.25200
C840        C  0.84895950  0.58685735  0.08453329     0.27500
H841        H  0.81783264  0.60232502  0.01673421     0.13200
N842        N  0.77017525  0.55501280  0.02695213    -0.82500
H843        H  0.82802998  0.55047268  0.11447526     0.18100
N844        N  0.87572975  0.59731544  0.10388418    -0.81100
H845        H  0.77232026  0.56771082  0.00708050     0.33700
H846        H  0.74711723  0.56281816  0.03612861     0.38200
H847        H  0.87429525  0.58404714  0.12352011     0.33700
H848        H  0.89886127  0.59056897  0.09423800     0.30400
H849        H  0.90518189  0.59685973  0.98764939     0.33700
H850        H  0.89724293  0.57535154  0.01835352     0.30400
H851        H  0.88712236  0.73613936  0.06122253     0.38200
H852        H  0.87930023  0.71438043  0.09179991     0.33700
C853        C  0.56246434  0.29726613  0.48783826    -0.20000
C854        C  0.58154332  0.32337656  0.47418419     0.36200
C855        C  0.60411032  0.34327838  0.49069739    -0.26000
C856        C  0.60769418  0.33861652  0.52070911     0.02600
C857        C  0.58823604  0.31320156  0.53463794     0.27400
C858        C  0.56599737  0.29264302  0.51804692    -0.25100
N859        N  0.57770643  0.33012908  0.44364839    -0.82500
H860        H  0.61840949  0.36336663  0.48017579     0.13200
C861        C  0.62826801  0.35837112  0.03953284     0.02600
N862        N  0.59117992  0.30839890  0.56550403    -0.81100
H863        H  0.55139739  0.27294133  0.52876074     0.18100
C864        C  0.61529398  0.37670870  0.06321125    -0.25900
C865        C  0.63528664  0.40088962  0.07791572     0.36100
C866        C  0.66891183  0.40732557  0.06826702    -0.20000
C867        C  0.68222301  0.38792110  0.04521302    -0.25200
C868        C  0.66524337  0.36589776  0.52911286     0.27500
H869        H  0.58909594  0.37276421  0.06973464     0.13200
N870        N  0.62099900  0.41972884  0.10181435    -0.82500
H871        H  0.70818985  0.39211598  0.03817398     0.18100
N872        N  0.67986097  0.34415989  0.50724226    -0.81100
H873        H  0.59531614  0.41364594  0.10461108     0.33700
H874        H  0.63338539  0.41174421  0.12070946     0.38200
H875        H  0.70548276  0.35015634  0.50400907     0.33700
H876        H  0.67919014  0.31924323  0.51515603     0.30400
H877        H  0.57492135  0.28904531  0.57248954     0.33700
H878        H  0.61986235  0.29131253  0.06592589     0.30400
H879        H  0.55325008  0.33993110  0.44056414     0.38200
H880        H  0.59456444  0.34912851  0.43690464     0.33700
C881        C  0.04128212  0.31399223  0.29950191    -0.20000
C882        C  0.07523416  0.31360685  0.28949429     0.36200
C883        C  0.09751186  0.33966980  0.29810753    -0.26000
C884        C  0.08634175  0.36634085  0.31596759     0.02600
C885        C  0.05224971  0.36720736  0.32549661     0.27400
C886        C  0.03021791  0.34049150  0.31770057    -0.25100
N887        N  0.08692750  0.28682262  0.27060941    -0.82500
H888        H  0.12366238  0.33945576  0.29063648     0.13200
C889        C  0.11066300  0.39365297  0.32353460     0.02600
N890        N  0.03969261  0.39601569  0.34159299    -0.81100
H891        H  0.00392715  0.34110959  0.32477860     0.18100
C892        C  0.11790459  0.41885016  0.30292598    -0.25900
C893        C  0.14242810  0.44414631  0.30846860     0.36100
C894        C  0.15980680  0.44428214  0.33537597    -0.20000
C895        C  0.15240864  0.41886384  0.35591969    -0.25200
C896        C  0.12841478  0.39323442  0.35009597     0.27500
H897        H  0.10455080  0.41851269  0.28231955     0.13200
N898        N  0.14968451  0.46951582  0.28688048    -0.82500
H899        H  0.16612258  0.41840285  0.37633981     0.18100
N900        N  0.12328401  0.36588162  0.37036695    -0.81100
H901        H  0.13527993  0.46522039  0.26811330     0.33700
H902        H  0.14187828  0.49301766  0.29522915     0.38200
H903        H  0.13932736  0.36867699  0.38834220     0.33700
H904        H  0.09846627  0.36745743  0.37830849     0.30400
H905        H  0.01373617  0.39323242  0.34592544     0.33700
H906        H  0.05191293  0.39660860  0.36172671     0.30400
H907        H  0.08587234  0.26404405  0.28228545     0.38200
H908        H  0.11240756  0.29057713  0.26494577     0.33700
C909        C  0.04289820  0.17044570  0.24678674    -0.20000
C910        C  0.05123281  0.14314769  0.26551384     0.36200
C911        C  0.07597544  0.11929998  0.25689920    -0.26000
C912        C  0.09310392  0.12224361  0.23023359     0.02600
C913        C  0.08519506  0.14981142  0.21175117     0.27400
C914        C  0.05996971  0.17332467  0.22007505    -0.25100
N915        N  0.03436747  0.13938716  0.29306664    -0.82500
H916        H  0.08158054  0.09791693  0.27092538     0.13200
C917        C  0.11870028  0.09591670  0.22173581     0.02600
N918        N  0.10309330  0.15405684  0.18473391    -0.81100
H919        H  0.05404342  0.19439337  0.20580096     0.18100
C920        C  0.11595300  0.07979849  0.19454442    -0.25900
C921        C  0.13954328  0.05500304  0.18554963     0.36100
C922        C  0.16604808  0.04523864  0.20457206    -0.20000
C923        C  0.16851960  0.06097685  0.23193772    -0.25200
C924        C  0.14553220  0.08656002  0.24053112     0.27500
H925        H  0.09509698  0.08647416  0.18027258     0.13200
N926        N  0.13646319  0.03967263  0.15724237    -0.82500
H927        H  0.18904552  0.05391508  0.24642558     0.18100
N928        N  0.14970911  0.10348320  0.26805230    -0.81100
H929        H  0.11622620  0.05039888  0.14571171     0.33700
H930        H  0.13046612  0.01399360  0.16020610     0.38200
H931        H  0.17062719  0.09364158  0.27925904     0.33700
H932        H  0.15518415  0.12903986  0.26383081     0.30400
H933        H  0.09424412  0.17549665  0.17365258     0.33700
H934        H  0.12864730  0.15864203  0.18966373     0.30400
H935        H  0.00886721  0.13371865  0.28884325     0.38200
H936        H  0.04421044  0.11864921  0.30450877     0.33700
C937        C  0.78282191  0.07962564  0.38977424    -0.20000
C938        C  0.80590982  0.10100689  0.40488628     0.36200
C939        C  0.82917401  0.12085631  0.38914328    -0.26000
C940        C  0.82971771  0.12049862  0.35866962     0.02600
C941        C  0.80727966  0.09863674  0.34357511     0.27400
C942        C  0.78458490  0.07799508  0.35930910    -0.25100
N943        N  0.80561799  0.10290861  0.43611499    -0.82500
H944        H  0.84714476  0.13674217  0.40078622     0.13200
C945        C  0.85427321  0.14284698  0.34303841     0.02600
N946        N  0.80718562  0.09796089  0.31233100    -0.81100
H947        H  0.76772869  0.06098385  0.34765445     0.18100
C948        C  0.87538859  0.12877773  0.32150353    -0.25900
C949        C  0.89890034  0.14893406  0.30634445     0.36100
C950        C  0.90233102  0.18365511  0.31364667    -0.20000
C951        C  0.88176602  0.19772565  0.33546442    -0.25200
C952        C  0.85718971  0.17789193  0.34978464     0.27500
H953        H  0.87376659  0.10182944  0.31666708     0.13200
N954        N  0.91970745  0.13413446  0.28391290    -0.82500
H955        H  0.88420147  0.22452219  0.34071999     0.18100
N956        N  0.83484650  0.19329998  0.37079340    -0.81100
H957        H  0.91368910  0.10843993  0.28093597     0.33700
H958        H  0.94493921  0.13501561  0.29102343     0.38200
H959        H  0.84031832  0.21919885  0.37321541     0.33700
H960        H  0.81008660  0.19171059  0.36261460     0.30400
H961        H  0.78978547  0.08004354  0.30459596     0.33700
H962        H  0.79883625  0.12175381  0.30513895     0.30400
H963        H  0.81469787  0.07967605  0.44396438     0.38200
H964        H  0.82259730  0.12148513  0.44353660     0.33700
C965        C  0.78861117  0.41761833  0.15609849    -0.20000
C966        C  0.78775640  0.41555572  0.18681377     0.36200
C967        C  0.81066910  0.39369240  0.20115978    -0.26000
C968        C  0.83359378  0.37342518  0.18537099     0.02600
C969        C  0.83399030  0.37498136  0.15486086     0.27400
C970        C  0.81157757  0.39699149  0.14058111    -0.25100
N971        N  0.76371628  0.43531818  0.20328700    -0.82500
H972        H  0.81044691  0.39209895  0.22467619     0.13200
C973        C  0.85744287  0.35060311  0.20073214     0.02600
N974        N  0.85738299  0.35427064  0.13852276    -0.81100
H975        H  0.81241678  0.39825047  0.11706929     0.18100
C976        C  0.85255730  0.31527989  0.19907695    -0.25900
C977        C  0.87582087  0.29267656  0.21193150     0.36100
C978        C  0.90473880  0.30583503  0.22616994    -0.20000
C979        C  0.90925591  0.34120198  0.22820691    -0.25200
C980        C  0.88602290  0.36376285  0.21537143     0.27500
H981        H  0.83045178  0.30542013  0.18778125     0.13200
N982        N  0.86967526  0.25661306  0.21136330    -0.82500
H983        H  0.93127113  0.35121296  0.23953833     0.18100
N984        N  0.89148153  0.39991155  0.21681522    -0.81100
H985        H  0.84664620  0.25141536  0.20092126     0.33700
H986        H  0.86659623  0.24854952  0.23284724     0.38200
H987        H  0.91361198  0.40540999  0.22852169     0.33700
H988        H  0.89559607  0.40854859  0.19562057     0.30400
H989        H  0.85420138  0.35808321  0.11620364     0.33700
H990        H  0.88201107  0.36239751  0.14359041     0.30400
H991        H  0.73940472  0.42634806  0.19817295     0.38200
H992        H  0.76700497  0.43124846  0.22557392     0.33700
C993        C  0.14773625  0.46234167  0.07727776    -0.20000
C994        C  0.14864869  0.43019587  0.09114613     0.36200
C995        C  0.12141587  0.40738767  0.08745919    -0.26000
C996        C  0.09364039  0.41560832  0.06981558     0.02600
C997        C  0.09252819  0.44749018  0.05591776     0.27400
C998        C  0.11951717  0.47066483  0.05990958    -0.25100
N999        N  0.17760253  0.42034773  0.10825935    -0.82500
H1000       H  0.12223884  0.38260791  0.09773540     0.13200
C1001       C  0.06739575  0.38930306  0.06424550     0.02600
N1002       N  0.06414439  0.45601204  0.03764911    -0.81100
H1003       H  0.11856940  0.49525629  0.04934369     0.18100
C1004       C  0.03718433  0.38919482  0.08043355    -0.25900
C1005       C  0.01251941  0.36362231  0.07623412     0.36100
C1006       C  0.01848167  0.33754355  0.05558531    -0.20000
C1007       C  0.04853093  0.33822122  0.03904015    -0.25200
C1008       C  0.07306780  0.36379964  0.04323976     0.27500
H1009       H  0.03296044  0.40903638  0.09643726     0.13200
N1010       N  0.98139418  0.36423897  0.09265163    -0.82500
H1011       H  0.05320557  0.31835398  0.02315210     0.18100
N1012       N  0.10406408  0.36375584  0.02663228    -0.81100
H1013       H  0.98114594  0.38487294  0.10704720     0.33700
H1014       H  0.96147237  0.36822486  0.07799400     0.38200
H1015       H  0.10457272  0.34307266  0.01229180     0.33700
H1016       H  0.10421979  0.38569739  0.01382651     0.30400
H1017       H  0.06706536  0.48048264  0.02914219     0.33700
H1018       H  0.06431781  0.43928550  0.01992797     0.30400
H1019       H  0.19842096  0.41837280  0.09418809     0.38200
H1020       H  0.17400738  0.39617112  0.11719239     0.33700
C1021       C  0.14532450  0.04210900  0.52008454    -0.20000
C1022       C  0.12120269  0.04195351  0.54296404     0.36200
C1023       C  0.09738898  0.06870329  0.54509170    -0.26000
C1024       C  0.09756874  0.09570813  0.52521156     0.02600
C1025       C  0.12150691  0.09598136  0.50250288     0.27400
C1026       C  0.14499384  0.06920586  0.50010747    -0.25100
N1027       N  0.12050307  0.01460964  0.56365343    -0.82500
H1028       H  0.07879529  0.06874163  0.56249208     0.13200
C1029       C  0.06723923  0.12450385  0.03363640     0.02600
N1030       N  0.12190276  0.12358123  0.48203430    -0.81100
H1031       H  0.16336402  0.06971080  0.48255037     0.18100
C1032       C  0.07610669  0.15446907  0.04830773    -0.25900
C1033       C  0.05365798  0.18223651  0.04956490     0.36100
C1034       C  0.02153553  0.17985103  0.03592936    -0.20000
C1035       C  0.01611722  0.14751702  0.52099373    -0.25200
C1036       C  0.03897675  0.12011063  0.51820395     0.27500
H1037       H  0.10094580  0.15633681  0.05839708     0.13200
N1038       N  0.06367041  0.21308805  0.06411090    -0.82500
H1039       H  0.99011450  0.14461620  0.51359424     0.18100
N1040       N  0.02820084  0.08848599  0.50541035    -0.81100
H1041       H  0.08797488  0.21056560  0.07307789     0.33700
H1042       H  0.06533226  0.23221267  0.04840870     0.38200
H1043       H  0.00260180  0.08978681  0.49935973     0.33700
H1044       H  0.04212210  0.08494468  0.48627100     0.30400
H1045       H  0.14131192  0.12016974  0.46675535     0.33700
H1046       H  0.09898736  0.12286475  0.47052302     0.30400
H1047       H  0.14244835  0.01658935  0.57636356     0.38200
H1048       H  0.09999530  0.01747969  0.57794016     0.33700
C1049       C  0.89431221  0.20435940  0.10429314    -0.20000
C1050       C  0.87561378  0.21937097  0.12720141     0.36200
C1051       C  0.85789804  0.19829580  0.14683867    -0.26000
C1052       C  0.85881987  0.16268973  0.14411250     0.02600
C1053       C  0.87839111  0.14780554  0.12174346     0.27400
C1054       C  0.89553755  0.16875523  0.10192036    -0.25100
N1055       N  0.87395810  0.25578512  0.12999415    -0.82500
H1056       H  0.84249374  0.20958419  0.16380306     0.13200
C1057       C  0.83788026  0.14097262  0.16362762     0.02600
N1058       N  0.88071534  0.11138016  0.11927462    -0.81100
H1059       H  0.91034270  0.15714212  0.08466527     0.18100
C1060       C  0.81371115  0.11916081  0.15113193    -0.25900
C1061       C  0.79503565  0.09604337  0.16806049     0.36100
C1062       C  0.79979210  0.09539792  0.19857047    -0.20000
C1063       C  0.82341700  0.11803660  0.21116896    -0.25200
C1064       C  0.84266183  0.14064591  0.19400472     0.27500
H1065       H  0.80998329  0.11967105  0.12779115     0.13200
N1066       N  0.77167813  0.07302208  0.15416463    -0.82500
H1067       H  0.82730444  0.11776895  0.23448553     0.18100
N1068       N  0.86736376  0.16281437  0.20721367    -0.81100
H1069       H  0.77013041  0.07799168  0.13187647     0.33700
H1070       H  0.78178684  0.04851928  0.15603777     0.38200
H1071       H  0.86770266  0.15953479  0.22977056     0.33700
H1072       H  0.89136371  0.15557626  0.19960787     0.30400
H1073       H  0.89594745  0.10447604  0.10158118     0.33700
H1074       H  0.89298392  0.10241903  0.13791028     0.30400
H1075       H  0.86137366  0.26518140  0.11168343     0.38200
H1076       H  0.85915831  0.26265973  0.14795181     0.33700
C1077       C  0.88736066  0.30496614  0.49345870    -0.20000
C1078       C  0.86748916  0.33253019  0.50390979     0.36200
C1079       C  0.84778998  0.35168524  0.48432222    -0.26000
C1080       C  0.84651654  0.34357485  0.45461185     0.02600
C1081       C  0.86567516  0.31560865  0.44425618     0.27400
C1082       C  0.88607900  0.29689042  0.46368187    -0.25100
N1083       N  0.86597781  0.34579300  0.02164140    -0.82500
H1084       H  0.83346560  0.37334637  0.49227935     0.13200
C1085       C  0.82562468  0.36505031  0.43457035     0.02600
N1086       N  0.86425308  0.30624076  0.41404396    -0.81100
H1087       H  0.90108884  0.27584199  0.45545695     0.18100
C1088       C  0.84100151  0.37962150  0.41000882    -0.25900
C1089       C  0.82240786  0.40009334  0.39059347     0.36100
C1090       C  0.78744451  0.40623467  0.39575229    -0.20000
C1091       C  0.77223973  0.39235001  0.42068397    -0.25200
C1092       C  0.79083568  0.37168340  0.44001712     0.27500
H1093       H  0.86786453  0.37536701  0.40618050     0.13200
N1094       N  0.83915143  0.41517721  0.36598721    -0.82500
H1095       H  0.74552339  0.39710295  0.42481372     0.18100
N1096       N  0.77439914  0.35711350  0.46498231    -0.81100
H1097       H  0.86471990  0.40791725  0.36519766     0.33700
H1098       H  0.83890946  0.44156908  0.36900775     0.38200
H1099       H  0.74891443  0.36461737  0.46594134     0.33700
H1100       H  0.77446856  0.33067949  0.46233825     0.30400
H1101       H  0.87992332  0.28528859  0.40987446     0.33700
H1102       H  0.83936219  0.29848845  0.40953766     0.30400
H1103       H  0.85424160  0.32916115  0.03624743     0.38200
H1104       H  0.85235271  0.36860981  0.02284141     0.33700
In1105     In  0.95556679  0.25474058  0.54797003     1.36900
C1106       C  0.00092756  0.20572673  0.53843481     0.77400
O1107       O  0.99495584  0.29124376  0.53158564    -0.61000
O1108       O  0.98076104  0.29463001  0.57594825    -0.51900
C1109       C  0.90595696  0.28484190  0.00646901     0.70100
O1110       O  0.92591407  0.26104185  0.99932006    -0.46800
C1111       C  0.91743499  0.22109711  0.58637492     0.74800
O1112       O  0.97507612  0.21452004  0.01827789    -0.58600
O1113       O  0.92959569  0.25019047  0.59177922    -0.48700
O1114       O  0.00193000  0.22532254  0.56018824    -0.55100
C1115       C  0.99910699  0.30617643  0.55564772     0.85000
O1116       O  0.91217898  0.29032587  0.53989471    -0.57000
O1117       O  0.92409300  0.20990186  0.56132860    -0.60300
In1118     In  0.96961814  0.24319437  0.77449512     1.36900
C1119       C  0.01546215  0.28855699  0.79245388     0.77400
O1120       O  0.00567333  0.20083814  0.78400338    -0.61000
O1121       O  0.00039592  0.21625294  0.73992453    -0.51900
C1122       C  0.92559179  0.20535334  0.80464208     0.70100
O1123       O  0.93970284  0.23135203  0.81552460    -0.46800
C1124       C  0.92639390  0.28062082  0.74320799     0.74800
O1125       O  0.99243557  0.27730392  0.80909971    -0.58600
O1126       O  0.93777847  0.25250975  0.73409048    -0.48700
O1127       O  0.01478424  0.27646802  0.76705218    -0.55100
C1128       C  0.01436947  0.19623292  0.75783555     0.85000
O1129       O  0.93416323  0.19908979  0.77880384    -0.57000
O1130       O  0.93747680  0.28926133  0.76776509    -0.60300
In1131     In  0.73235476  0.48476156  0.60493622     1.36900
C1132       C  0.77824086  0.52828862  0.58418599     0.77400
O1133       O  0.69499445  0.52589294  0.59497915    -0.61000
O1134       O  0.70171425  0.51243797  0.63924081    -0.51900
C1135       C  0.69327974  0.43844477  0.57853571     0.70100
O1136       O  0.71957057  0.45074728  0.56672102    -0.46800
C1137       C  0.77042043  0.44187318  0.63595010     0.74800
O1138       O  0.75802359  0.51211658  0.56786039    -0.58600
O1139       O  0.74965722  0.46236690  0.64760411    -0.48700
O1140       O  0.77526181  0.52152431  0.61085102    -0.55100
C1141       C  0.68661825  0.53126013  0.62106830     0.85000
O1142       O  0.68714337  0.45017618  0.60351678    -0.57000
O1143       O  0.77182454  0.44405305  0.60863153    -0.60300
In1144     In  0.73648065  0.46510588  0.82821118     1.36900
C1145       C  0.78559961  0.51167147  0.82231951     0.77400
O1146       O  0.70101027  0.50580377  0.81311448    -0.61000
O1147       O  0.69431329  0.48629478  0.85576160    -0.51900
C1148       C  0.70155289  0.42478513  0.79234662     0.70100
O1149       O  0.72706374  0.44171015  0.78376064    -0.46800
C1150       C  0.76813805  0.42123451  0.86323640     0.74800
O1151       O  0.77897776  0.49014604  0.80256689    -0.58600
O1152       O  0.74392134  0.43992007  0.87174547    -0.48700
O1153       O  0.76727398  0.50886809  0.84470465    -0.55100
C1154       C  0.68352119  0.50607637  0.83616046     0.85000
O1155       O  0.69567388  0.42724857  0.81917166    -0.57000
O1156       O  0.77569350  0.42485017  0.83677008    -0.60300
In1157     In  0.74326268  0.02752610  0.75201283     1.36900
C1158       C  0.69156419  0.98621389  0.74089805     0.77400
O1159       O  0.77322924  0.98139386  0.74011834    -0.61000
O1160       O  0.78365741  0.00484872  0.78087675    -0.51900
C1161       C  0.77965727  0.06876484  0.71792455     0.70100
O1162       O  0.75799712  0.04793797  0.70812587    -0.46800
C1163       C  0.70563275  0.06726574  0.78591383     0.74800
O1164       O  0.70075802  0.00887185  0.72302558    -0.58600
O1165       O  0.72915324  0.04891859  0.79617556    -0.48700
O1166       O  0.70915208  0.98477320  0.76377122    -0.55100
C1167       C  0.79014060  0.98074771  0.76340185     0.85000
O1168       O  0.78219063  0.06863842  0.74526336    -0.57000
O1169       O  0.70333935  0.06667296  0.75862138    -0.60300
In1170     In  0.70609027  0.02089187  0.93548653     1.36900
C1171       C  0.65680884  0.97787640  0.92049415     0.77400
O1172       O  0.73869238  0.97665286  0.92509163    -0.61000
O1173       O  0.74643552  0.99865956  0.46796100    -0.51900
C1174       C  0.75110349  0.05980478  0.90818417     0.70100
O1175       O  0.72715734  0.04486264  0.89479412    -0.46800
C1176       C  0.67780511  0.06933815  0.46403547     0.74800
O1177       O  0.67437264  0.99362905  0.90175395    -0.58600
O1178       O  0.69383911  0.04536406  0.47611975    -0.48700
O1179       O  0.66354623  0.98554633  0.94649848    -0.55100
C1180       C  0.75129836  0.97394003  0.95012198     0.85000
O1181       O  0.75087375  0.05541490  0.93533144    -0.57000
O1182       O  0.67288830  0.06741968  0.93616765    -0.60300
In1183     In  0.49925903  0.26121802  0.62589207     1.36900
C1184       C  0.46050716  0.31598391  0.61874804     0.77400
O1185       O  0.45232382  0.23059647  0.61617708    -0.61000
O1186       O  0.47971404  0.21817109  0.65418600    -0.51900
C1187       C  0.53840252  0.22803291  0.58810370     0.70100
O1188       O  0.51514241  0.24806909  0.58012164    -0.46800
C1189       C  0.54473990  0.29239371  0.65944500     0.74800
O1190       O  0.47479179  0.30104348  0.59764332    -0.58600
O1191       O  0.52388061  0.27066362  0.66917721    -0.48700
O1192       O  0.46598170  0.30270510  0.64322087    -0.55100
C1193       C  0.45480114  0.21132242  0.63787821     0.85000
O1194       O  0.54216873  0.22593060  0.61521495    -0.57000
O1195       O  0.54256691  0.29744171  0.63239788    -0.60300
In1196     In  0.49344963  0.23875762  0.93814321     1.36900
C1197       C  0.44839202  0.19058106  0.95219562     0.77400
O1198       O  0.45267805  0.27646854  0.94886722    -0.61000
O1199       O  0.46934839  0.27328208  0.90495387    -0.51900
C1200       C  0.53529462  0.27643461  0.97096846     0.70100
O1201       O  0.51607398  0.25391459  0.98164228    -0.46800
C1202       C  0.53790065  0.20270191  0.90632144     0.74800
O1203       O  0.47122221  0.20071850  0.96954936    -0.58600
O1204       O  0.52239699  0.22834450  0.89643714    -0.48700
O1205       O  0.44903305  0.20495696  0.92768484    -0.55100
C1206       C  0.44985265  0.28741191  0.92323011     0.85000
O1207       O  0.53332088  0.27885536  0.94375283    -0.57000
O1208       O  0.52984327  0.19542167  0.93205922    -0.60300
In1209     In  0.22552561  0.53573802  0.58945305     1.36900
C1210       C  0.27979094  0.49621266  0.59721273     0.77400
O1211       O  0.19803019  0.48772756  0.60094663    -0.61000
O1212       O  0.18193931  0.51397274  0.56314577    -0.51900
C1213       C  0.19384721  0.57602426  0.62796980     0.70100
O1214       O  0.22060604  0.55976838  0.63400648    -0.46800
C1215       C  0.25591847  0.57883318  0.55283361     0.74800
O1216       O  0.26476139  0.51078796  0.61812505    -0.58600
O1217       O  0.23379593  0.55761279  0.54446814    -0.48700
O1218       O  0.26660904  0.50159920  0.57267197    -0.55100
C1219       C  0.17787824  0.48868944  0.57969473     0.85000
O1220       O  0.18369142  0.57163943  0.60223193    -0.57000
O1221       O  0.26049084  0.57916659  0.57994783    -0.60300
In1222     In  0.23381068  0.51549744  0.85565882     1.36900
C1223       C  0.18644156  0.47034676  0.84261780     0.77400
O1224       O  0.26984822  0.47330125  0.84525506    -0.61000
O1225       O  0.26853585  0.49169984  0.88881288    -0.51900
C1226       C  0.27394758  0.55683047  0.82625792     0.70100
O1227       O  0.25053479  0.54010610  0.81388712    -0.46800
C1228       C  0.19448808  0.56215915  0.88102371     0.74800
O1229       O  0.19962284  0.48953449  0.82362056    -0.58600
O1230       O  0.21625204  0.54515172  0.89519057    -0.48700
O1231       O  0.19761111  0.47454705  0.86812536    -0.55100
C1232       C  0.28152902  0.47101193  0.87075085     0.85000
O1233       O  0.27618353  0.55243643  0.85329839    -0.57000
O1234       O  0.19298353  0.55454507  0.85445863    -0.60300
In1235     In  0.47040187  0.75955693  0.69024393     1.36900
C1236       C  0.51772845  0.71517181  0.67341495     0.77400
O1237       O  0.50692102  0.79989354  0.67868534    -0.61000
O1238       O  0.49363662  0.79505501  0.72336535    -0.51900
C1239       C  0.42425370  0.79638309  0.66187398     0.70100
O1240       O  0.44589882  0.77794808  0.64893844    -0.46800
C1241       C  0.43129099  0.71633263  0.71943611     0.74800
O1242       O  0.49317271  0.72377782  0.65727921    -0.58600
O1243       O  0.44941642  0.73842101  0.73220794    -0.48700
O1244       O  0.51816012  0.72958612  0.69792222    -0.55100
C1245       C  0.51148876  0.81013171  0.70439489     0.85000
O1246       O  0.42606247  0.79546255  0.68924756    -0.57000
O1247       O  0.43346343  0.71698264  0.69213637    -0.60300
In1248     In  0.45426946  0.72919211  0.87400526     1.36900
C1249       C  0.49802755  0.77993446  0.88255150     0.77400
O1250       O  0.50029821  0.69903836  0.88550199    -0.61000
O1251       O  0.47308500  0.68438556  0.84757865    -0.51900
C1252       C  0.41140497  0.69726028  0.90996755     0.70100
O1253       O  0.42901824  0.72266767  0.91772906    -0.46800
C1254       C  0.41249393  0.76509454  0.84007644     0.74800
O1255       O  0.48213436  0.76594291  0.90329997    -0.58600
O1256       O  0.43393151  0.74428913  0.82976555    -0.48700
O1257       O  0.49176885  0.76738615  0.85786315    -0.55100
C1258       C  0.49819841  0.67902759  0.86413644     0.85000
O1259       O  0.41568609  0.68861866  0.88378533    -0.57000
O1260       O  0.41192437  0.76606198  0.86745296    -0.60300
In1261     In  0.23895516  0.97538652  0.68878984     1.36900
C1262       C  0.18898507  0.01765529  0.70427869     0.77400
O1263       O  0.27171281  0.01979166  0.70055456    -0.61000
O1264       O  0.27481516  0.00133543  0.65725126    -0.51900
C1265       C  0.27458633  0.92980926  0.71941785     0.70100
O1266       O  0.24766664  0.94337844  0.72894678    -0.46800
C1267       C  0.20191339  0.93444265  0.65511873     0.74800
O1268       O  0.20730875  0.00252532  0.72281497    -0.58600
O1269       O  0.22571464  0.95255004  0.64496124    -0.48700
O1270       O  0.19663378  0.01114886  0.67823168    -0.55100
C1271       C  0.28459929  0.02327396  0.67561947     0.85000
O1272       O  0.28320414  0.93988644  0.69450209    -0.57000
O1273       O  0.19847213  0.93656214  0.68228554    -0.60300
In1274     In  0.21771114  0.97253881  0.01333755     1.36900
C1275       C  0.16956520  0.01908845  0.02322443     0.77400
O1276       O  0.25532210  0.01340121  0.02442492    -0.61000
O1277       O  0.25877891  0.99119108  0.98257498    -0.51900
C1278       C  0.25537654  0.93135646  0.54500841     0.70100
O1279       O  0.23487079  0.95420660  0.55334119    -0.46800
C1280       C  0.18126454  0.92882517  0.98142024     0.74800
O1281       O  0.17872417  0.99277323  0.53499677    -0.58600
O1282       O  0.20038256  0.95116196  0.97027766    -0.48700
O1283       O  0.18541107  0.01614273  0.99954089    -0.55100
C1284       C  0.27038945  0.01304673  0.00022314     0.85000
O1285       O  0.25303017  0.92898325  0.02043092    -0.57000
O1286       O  0.18086969  0.92889885  0.00884579    -0.60300
In1287     In  0.98906493  0.75922702  0.50921211     1.36900
C1288       C  0.94383344  0.80777966  0.49787699     0.77400
O1289       O  0.95018747  0.71935562  0.49889739    -0.61000
O1290       O  0.96304381  0.72741441  0.54326822    -0.51900
C1291       C  0.03107584  0.72015169  0.47880515     0.70100
O1292       O  0.01064138  0.74421596  0.96573156    -0.46800
C1293       C  0.03666241  0.79492389  0.53683895     0.74800
O1294       O  0.96223303  0.79460410  0.47824264    -0.58600
O1295       O  0.01917612  0.77210199  0.54916831    -0.48700
O1296       O  0.94908215  0.79621187  0.52303153    -0.55100
C1297       C  0.94534393  0.71095409  0.52505216     0.85000
O1298       O  0.02717669  0.71786398  0.50591016    -0.57000
O1299       O  0.02930376  0.79965316  0.51047569    -0.60300
In1300     In  0.01014355  0.74690206  0.80582963     1.36900
C1301       C  0.96620398  0.69504035  0.80963305     0.77400
O1302       O  0.96458370  0.77824628  0.81754207    -0.61000
O1303       O  0.99260492  0.79307372  0.78051013    -0.51900
C1304       C  0.04979539  0.77409633  0.84745681     0.70100
O1305       O  0.02425791  0.75581092  0.85306345    -0.46800
C1306       C  0.05268702  0.71731579  0.76795576     0.74800
O1307       O  0.98724174  0.70209996  0.82955746    -0.58600
O1308       O  0.03534579  0.74335115  0.76161801    -0.48700
O1309       O  0.96809628  0.71442676  0.78786046    -0.55100
C1310       C  0.96724309  0.79874759  0.79667851     0.85000
O1311       O  0.05548525  0.77761181  0.82069151    -0.57000
O1312       O  0.04833625  0.70705153  0.79367620    -0.60300
C1313       C  0.07036402  0.79141471  0.87021843    -0.20000
C1314       C  0.10523943  0.79866642  0.86605098     0.36200
C1315       C  0.12273921  0.81853445  0.88674322    -0.26000
C1316       C  0.10616302  0.83133377  0.91147745     0.02600
C1317       C  0.07155768  0.82337788  0.91607110     0.27400
C1318       C  0.05417022  0.80310554  0.89557912    -0.25100
N1319       N  0.12269462  0.78602071  0.84076717    -0.82500
H1320       H  0.14926268  0.82483871  0.88323998     0.13200
C1321       C  0.12448646  0.85598238  0.93045056     0.02600
N1322       N  0.05368883  0.83748060  0.94057588    -0.81100
H1323       H  0.02739030  0.79773889  0.89875389     0.18100
C1324       C  0.12735382  0.88986257  0.92118476    -0.25900
C1325       C  0.14561089  0.91408891  0.93752152     0.36100
C1326       C  0.16112627  0.90429036  0.96386141    -0.20000
C1327       C  0.15791458  0.87044376  0.97333904    -0.25200
C1328       C  0.14034790  0.84597534  0.95658677     0.27500
H1329       H  0.11542216  0.89733911  0.90095106     0.13200
N1330       N  0.14815307  0.94866499  0.92760183    -0.82500
H1331       H  0.17016905  0.86282024  0.99338822     0.18100
N1332       N  0.14011702  0.81082600  0.96522676    -0.81100
H1333       H  0.13555615  0.95163606  0.90776352     0.33700
H1334       H  0.13541943  0.96406040  0.94266325     0.38200
H1335       H  0.15406784  0.80757016  0.98437174     0.33700
H1336       H  0.11513441  0.80394657  0.97010348     0.30400
H1337       H  0.02802725  0.83051947  0.94001291     0.33700
H1338       H  0.06369807  0.82656456  0.95936651     0.30400
H1339       H  0.12282551  0.75945176  0.84201345     0.38200
H1340       H  0.14814599  0.79375903  0.84090089     0.33700
C1341       C  0.06379564  0.81414736  0.55213617    -0.20000
C1342       C  0.07576551  0.84603871  0.54213680     0.36200
C1343       C  0.10072971  0.86352328  0.55825533    -0.26000
C1344       C  0.11413578  0.84976538  0.58393557     0.02600
C1345       C  0.10337647  0.81711227  0.59295622     0.27400
C1346       C  0.07819290  0.79996575  0.57725459    -0.25100
N1347       N  0.06211620  0.86095610  0.51612836    -0.82500
H1348       H  0.10908017  0.88847832  0.55123553     0.13200
C1349       C  0.13754284  0.87077062  0.60191583     0.02600
N1350       N  0.11831268  0.80024722  0.61741186    -0.81100
H1351       H  0.07002076  0.77511549  0.58468266     0.18100
C1352       C  0.12696877  0.88078292  0.62972913    -0.25900
C1353       C  0.14738989  0.90161151  0.64735013     0.36100
C1354       C  0.17934339  0.91286238  0.63688541    -0.20000
C1355       C  0.18952791  0.90361017  0.60865121    -0.25200
C1356       C  0.16894535  0.88260409  0.59106566     0.27500
H1357       H  0.10215752  0.87292154  0.63748583     0.13200
N1358       N  0.13530774  0.91194133  0.67554819    -0.82500
H1359       H  0.21377725  0.91242049  0.60044715     0.18100
N1360       N  0.17969042  0.87324155  0.56227144    -0.81100
H1361       H  0.11178857  0.90074581  0.68014592     0.33700
H1362       H  0.13113294  0.93821449  0.67485682     0.38200
H1363       H  0.20313663  0.88432789  0.55740616     0.33700
H1364       H  0.18343366  0.84689888  0.56200767     0.30400
H1365       H  0.11336691  0.81421071  0.63626711     0.33700
H1366       H  0.14462433  0.79913297  0.61423959     0.30400
H1367       H  0.03660847  0.86685315  0.52014108     0.38200
H1368       H  0.07433068  0.88395353  0.51146447     0.33700
C1369       C  0.39034786  0.78717144  0.82176318    -0.20000
C1370       C  0.37014468  0.81336781  0.83412963     0.36200
C1371       C  0.35015580  0.83402093  0.81599927    -0.26000
C1372       C  0.34995782  0.82953577  0.78577203     0.02600
C1373       C  0.36969524  0.80329868  0.77334505     0.27400
C1374       C  0.38988304  0.78262481  0.79141927    -0.25100
N1375       N  0.37038350  0.81953493  0.86496114    -0.82500
H1376       H  0.33524913  0.85444993  0.82544377     0.13200
C1377       C  0.33001002  0.85363611  0.76756685     0.02600
N1378       N  0.36904727  0.79772295  0.74245570    -0.81100
H1379       H  0.40544445  0.76303936  0.78167846     0.18100
C1380       C  0.34695490  0.87410102  0.74723095    -0.25900
C1381       C  0.32945655  0.89909986  0.73126708     0.36100
C1382       C  0.29420052  0.90390441  0.73587967    -0.20000
C1383       C  0.27723159  0.88315834  0.75606014    -0.25200
C1384       C  0.29466890  0.85773177  0.77159322     0.27500
H1385       H  0.37413978  0.87106420  0.74431018     0.13200
N1386       N  0.34754823  0.92004267  0.71086279    -0.82500
H1387       H  0.25012027  0.88635339  0.75931073     0.18100
N1388       N  0.27663904  0.83577818  0.79124662    -0.81100
H1389       H  0.37312074  0.91287280  0.70970993     0.33700
H1390       H  0.34710230  0.94501383  0.71877914     0.38200
H1391       H  0.25077305  0.84193579  0.79166120     0.33700
H1392       H  0.27837659  0.81098682  0.78304772     0.30400
H1393       H  0.38473748  0.77727306  0.73679311     0.33700
H1394       H  0.34427723  0.79063747  0.73680782     0.30400
H1395       H  0.39443646  0.82898981  0.87035986     0.38200
H1396       H  0.35299438  0.83860600  0.87052216     0.33700
C1397       C  0.27697804  0.91163236  0.56521082    -0.20000
C1398       C  0.28411047  0.87684136  0.56032476     0.36200
C1399       C  0.30658283  0.85975901  0.57900975    -0.26000
C1400       C  0.32304844  0.87689545  0.60175143     0.02600
C1401       C  0.31635784  0.91178571  0.60646916     0.27400
C1402       C  0.29259734  0.92854435  0.58860364    -0.25100
N1403       N  0.26831500  0.85881889  0.53666110    -0.82500
H1404       H  0.31222469  0.83310179  0.57526788     0.13200
C1405       C  0.34930341  0.85818811  0.61846410     0.02600
N1406       N  0.33526327  0.93056876  0.62793565    -0.81100
H1407       H  0.28758038  0.95539049  0.59198506     0.18100
C1408       C  0.38080917  0.85183039  0.60518129    -0.25900
C1409       C  0.40559486  0.83154733  0.61877824     0.36100
C1410       C  0.39882231  0.81761169  0.64645658    -0.20000
C1411       C  0.36729518  0.82416805  0.65980121    -0.25200
C1412       C  0.34217196  0.84376263  0.64584447     0.27500
H1413       H  0.38583584  0.86240759  0.58386707     0.13200
N1414       N  0.43760964  0.82524453  0.60463258    -0.82500
H1415       H  0.36185623  0.81309079  0.68083690     0.18100
N1416       N  0.30892674  0.84733515  0.65857542    -0.81100
H1417       H  0.43829628  0.83692446  0.58423799     0.33700
H1418       H  0.45660615  0.83677999  0.61713743     0.38200
H1419       H  0.30745868  0.83386150  0.67810611     0.33700
H1420       H  0.30524560  0.87287847  0.66395067     0.30400
H1421       H  0.32826993  0.95624725  0.62769882     0.33700
H1422       H  0.32866817  0.92143246  0.64842977     0.30400
H1423       H  0.27135469  0.86808716  0.01666897     0.38200
H1424       H  0.27422917  0.83290636  0.53757989     0.33700
C1425       C  0.05195882  0.69844734  0.96325024    -0.20000
C1426       C  0.06039622  0.66580148  0.97400785     0.36200
C1427       C  0.08525409  0.64639698  0.95976016    -0.26000
C1428       C  0.10296733  0.65907606  0.93566983     0.02600
C1429       C  0.09461930  0.69170398  0.92484509     0.27400
C1430       C  0.06883476  0.71082660  0.93851720    -0.25100
N1431       N  0.04156901  0.64914185  0.49464513    -0.82500
H1432       H  0.09086180  0.62100990  0.96754743     0.13200
C1433       C  0.12878742  0.63677875  0.92144791     0.02600
N1434       N  0.11254827  0.70542675  0.90027995    -0.81100
H1435       H  0.06252433  0.73586098  0.93028644     0.18100
C1436       C  0.12606863  0.63001776  0.89162075    -0.25900
C1437       C  0.14790181  0.60682080  0.87771067     0.36100
C1438       C  0.17236719  0.58876731  0.89428637    -0.20000
C1439       C  0.17540891  0.59595933  0.92409538    -0.25200
C1440       C  0.15430700  0.62011062  0.93774717     0.27500
H1441       H  0.10629200  0.64243265  0.87914949     0.13200
N1442       N  0.14478597  0.60131347  0.84690202    -0.82500
H1443       H  0.19425584  0.58259300  0.93688195     0.18100
N1444       N  0.15854330  0.62762021  0.96814900    -0.81100
H1445       H  0.12457817  0.61540163  0.83837126     0.33700
H1446       H  0.16682498  0.61089294  0.83715270     0.38200
H1447       H  0.17823160  0.61307046  0.97700310     0.33700
H1448       H  0.16598954  0.65308805  0.96990722     0.30400
H1449       H  0.10313617  0.72949278  0.89495947     0.33700
H1450       H  0.13791693  0.70882083  0.90643519     0.30400
H1451       H  0.05002599  0.65984043  0.51416694     0.38200
H1452       H  0.04665839  0.62308949  0.49621789     0.33700
C1453       C  0.29702191  0.57995240  0.81062141    -0.20000
C1454       C  0.33189862  0.58169660  0.81777066     0.36200
C1455       C  0.35304361  0.60421044  0.80257367    -0.26000
C1456       C  0.33988686  0.62609026  0.78132868     0.02600
C1457       C  0.30486802  0.62465809  0.77445981     0.27400
C1458       C  0.28392541  0.60101864  0.78877464    -0.25100
N1459       N  0.34600649  0.55981288  0.83969955    -0.82500
H1460       H  0.38002767  0.60469811  0.80733188     0.13200
C1461       C  0.36342847  0.64944587  0.76585092     0.02600
N1462       N  0.29068263  0.64748141  0.75330099    -0.81100
H1463       H  0.25707677  0.59976314  0.78354011     0.18100
C1464       C  0.36462506  0.64851534  0.73543534    -0.25900
C1465       C  0.38710811  0.66931086  0.71979988     0.36100
C1466       C  0.40883528  0.69199621  0.73499627    -0.20000
C1467       C  0.40852628  0.69188720  0.76553653    -0.25200
C1468       C  0.38579905  0.67116851  0.78111496     0.27500
H1469       H  0.34830827  0.63090866  0.72380905     0.13200
N1470       N  0.38796373  0.66712013  0.68859420    -0.82500
H1471       H  0.42597604  0.70811286  0.77734159     0.18100
N1472       N  0.38518962  0.67215511  0.81235337    -0.81100
H1473       H  0.36932919  0.65034803  0.68094331     0.33700
H1474       H  0.41136646  0.65643956  0.68278227     0.38200
H1475       H  0.40399140  0.68841692  0.82032327     0.33700
H1476       H  0.36177664  0.68234648  0.81872866     0.30400
H1477       H  0.26464005  0.64303770  0.75071327     0.33700
H1478       H  0.29316602  0.67222944  0.76145984     0.30400
H1479       H  0.33704148  0.56829470  0.85984444     0.38200
H1480       H  0.37245949  0.56238567  0.84053399     0.33700
C1481       C  0.17534989  0.59825144  0.64900031    -0.20000
C1482       C  0.18910035  0.60764235  0.67631647     0.36200
C1483       C  0.17005740  0.62868616  0.69512327    -0.26000
C1484       C  0.13736573  0.64010797  0.68756383     0.02600
C1485       C  0.12350766  0.63037756  0.66051347     0.27400
C1486       C  0.14275444  0.61001566  0.64145573    -0.25100
N1487       N  0.22214406  0.59577909  0.68502223    -0.82500
H1488       H  0.18071096  0.63616761  0.71590186     0.13200
C1489       C  0.11721358  0.66089656  0.70864439     0.02600
N1490       N  0.08957329  0.64054855  0.65277787    -0.81100
H1491       H  0.13181123  0.60267701  0.62075817     0.18100
C1492       C  0.10387923  0.69255769  0.70017479    -0.25900
C1493       C  0.08314646  0.71189851  0.71904971     0.36100
C1494       C  0.07577279  0.69937059  0.74720789    -0.20000
C1495       C  0.08992933  0.66809169  0.75576875    -0.25200
C1496       C  0.11014094  0.64862508  0.73678653     0.27500
H1497       H  0.10953912  0.70210380  0.67862590     0.13200
N1498       N  0.06942597  0.74389535  0.70952722    -0.82500
H1499       H  0.08444540  0.65817758  0.77721836     0.18100
N1500       N  0.12274016  0.61593270  0.74573415    -0.81100
H1501       H  0.07640362  0.74877336  0.68799344     0.33700
H1502       H  0.08060839  0.76302593  0.72214589     0.38200
H1503       H  0.11542320  0.61064016  0.76710722     0.33700
H1504       H  0.11121544  0.59750575  0.73258023     0.30400
H1505       H  0.08313128  0.63130546  0.63216444     0.33700
H1506       H  0.07285448  0.62909227  0.66748305     0.30400
H1507       H  0.24006083  0.60715281  0.67134133     0.38200
H1508       H  0.22784802  0.60397530  0.70611567     0.33700
C1509       C  0.38755552  0.67928869  0.92991955    -0.20000
C1510       C  0.37514225  0.64616972  0.92382532     0.36200
C1511       C  0.35220404  0.63060486  0.94324253    -0.26000
C1512       C  0.34182859  0.64700464  0.96890509     0.02600
C1513       C  0.34880865  0.69009846  0.47626594     0.27400
C1514       C  0.37709958  0.69561763  0.95562161    -0.25100
N1515       N  0.38643548  0.62804715  0.89839076    -0.82500
H1516       H  0.34313675  0.60507083  0.93878787     0.13200
C1517       C  0.31529368  0.63830697  0.49215171     0.02600
N1518       N  0.33629181  0.70863311  0.50104712    -0.81100
H1519       H  0.38648775  0.72092811  0.96047283     0.18100
C1520       C  0.32571544  0.63516038  0.52116668    -0.25900
C1521       C  0.30661806  0.61635851  0.54138706     0.36100
C1522       C  0.27595408  0.60047795  0.53251719    -0.20000
C1523       C  0.26526167  0.60405785  0.50350961    -0.25200
C1524       C  0.28449061  0.62296525  0.48331080     0.27500
H1525       H  0.34957919  0.64654252  0.52785352     0.13200
N1526       N  0.31897016  0.61254175  0.57062318    -0.82500
H1527       H  0.24184510  0.59201283  0.49653050     0.18100
N1528       N  0.27499607  0.62022004  0.95273519    -0.81100
H1529       H  0.34115054  0.62675883  0.57378990     0.33700
H1530       H  0.32581222  0.58702112  0.57331473     0.38200
H1531       H  0.25120133  0.60870847  0.95018967     0.33700
H1532       H  0.27134646  0.64632460  0.94972441     0.30400
H1533       H  0.34687050  0.73303851  0.50180030     0.33700
H1534       H  0.31008202  0.71178879  0.49832549     0.30400
H1535       H  0.41243784  0.62327849  0.90088352     0.38200
H1536       H  0.37458723  0.60427170  0.89697713     0.33700
C1537       C  0.30795516  0.44555668  0.87848361    -0.20000
C1538       C  0.32940974  0.44965674  0.90290524     0.36200
C1539       C  0.35346391  0.42424824  0.90949818    -0.26000
C1540       C  0.35655727  0.39503249  0.89215344     0.02600
C1541       C  0.33534257  0.39089172  0.86774801     0.27400
C1542       C  0.31148845  0.41633230  0.86100085    -0.25100
N1543       N  0.32692194  0.47960585  0.92078668    -0.82500
H1544       H  0.36983425  0.42712343  0.92829040     0.13200
C1545       C  0.38112389  0.36817904  0.90043029     0.02600
N1546       N  0.33738979  0.36036885  0.85050148    -0.81100
H1547       H  0.29503707  0.41294201  0.84232443     0.18100
C1548       C  0.37086918  0.34297833  0.92005010    -0.25900
C1549       C  0.39300089  0.31647482  0.92795656     0.36100
C1550       C  0.42576686  0.31480693  0.91542090    -0.20000
C1551       C  0.43607209  0.34020870  0.89590788    -0.25200
C1552       C  0.41425333  0.36731589  0.88871432     0.27500
H1553       H  0.34544122  0.34399198  0.92912318     0.13200
N1554       N  0.38215606  0.29100924  0.94832314    -0.82500
H1555       H  0.46150610  0.33933281  0.88684252     0.18100
N1556       N  0.42586412  0.39442201  0.87026893    -0.81100
H1557       H  0.35754376  0.29614557  0.95574592     0.33700
H1558       H  0.38089933  0.26792469  0.93708265     0.38200
H1559       H  0.45117097  0.39045240  0.86415390     0.33700
H1560       H  0.41149174  0.39380081  0.85117683     0.30400
H1561       H  0.31947399  0.36091134  0.83371495     0.33700
H1562       H  0.36128981  0.35979837  0.84057739     0.30400
H1563       H  0.33426259  0.50039342  0.90809322     0.38200
H1564       H  0.34412000  0.47837227  0.93808379     0.33700
C1565       C  0.29862118  0.03720405  0.99348219    -0.20000
C1566       C  0.32081776  0.03285389  0.96950100     0.36200
C1567       C  0.34692828  0.05683440  0.96459709    -0.26000
C1568       C  0.35080935  0.08546258  0.98260134     0.02600
C1569       C  0.32825725  0.09031529  0.00606132     0.27400
C1570       C  0.30292272  0.06586176  0.01156188    -0.25100
N1571       N  0.31700328  0.00422689  0.95026038    -0.82500
H1572       H  0.36387676  0.05368155  0.94619861     0.13200
C1573       C  0.37644026  0.11179963  0.97498391     0.02600
N1574       N  0.32995529  0.12092274  0.02324785    -0.81100
H1575       H  0.28573999  0.06980224  0.02968139     0.18100
C1576       C  0.36852331  0.13529856  0.95316907    -0.25900
C1577       C  0.39141822  0.16128123  0.94543430     0.36100
C1578       C  0.42310546  0.16384648  0.95988077    -0.20000
C1579       C  0.43104079  0.14009457  0.98166292    -0.25200
C1580       C  0.40822018  0.11382902  0.98912852     0.27500
H1581       H  0.34412118  0.13350252  0.94231858     0.13200
N1582       N  0.38226238  0.18534161  0.92330853    -0.82500
H1583       H  0.45547540  0.14156169  0.99246296     0.18100
N1584       N  0.41778285  0.08848575  0.01009274    -0.81100
H1585       H  0.35847909  0.17941813  0.91446267     0.33700
H1586       H  0.37961869  0.20899313  0.93344082     0.38200
H1587       H  0.44282687  0.09142143  0.52034586     0.33700
H1588       H  0.40164715  0.09064558  0.02801667     0.30400
H1589       H  0.31064921  0.12121148  0.03889028     0.33700
H1590       H  0.35287458  0.12088323  0.03467514     0.30400
H1591       H  0.29442743  0.00773887  0.93865028     0.38200
H1592       H  0.33650096  0.00388920  0.93479474     0.33700
C1593       C  0.43807281  0.34586678  0.61515252    -0.20000
C1594       C  0.43564210  0.37134537  0.63675722     0.36200
C1595       C  0.41165054  0.39764067  0.63360709    -0.26000
C1596       C  0.38920203  0.39837934  0.60984164     0.02600
C1597       C  0.39199428  0.37289802  0.58812624     0.27400
C1598       C  0.41703869  0.34756124  0.59064728    -0.25100
N1599       N  0.45753719  0.37044574  0.66177467    -0.82500
H1600       H  0.41032582  0.41755908  0.64989162     0.13200
C1601       C  0.36280407  0.42567290  0.60791265     0.02600
N1602       N  0.36859407  0.37206369  0.56411840    -0.81100
H1603       H  0.41885023  0.32787653  0.57417013     0.18100
C1604       C  0.35901693  0.44366937  0.58176949    -0.25900
C1605       C  0.33269886  0.46742521  0.57797325     0.36100
C1606       C  0.30988407  0.47392792  0.60107591    -0.20000
C1607       C  0.31502054  0.45775962  0.62787637    -0.25200
C1608       C  0.34088967  0.43336747  0.63147078     0.27500
H1609       H  0.37654806  0.43887774  0.56404651     0.13200
N1610       N  0.32912748  0.48492655  0.55072578    -0.82500
H1611       H  0.29779472  0.46301500  0.64572745     0.18100
N1612       N  0.34421913  0.41570183  0.65865566    -0.81100
H1613       H  0.34763606  0.47684059  0.53590861     0.33700
H1614       H  0.33365838  0.51077490  0.55458688     0.38200
H1615       H  0.32644178  0.42465187  0.67376609     0.33700
H1616       H  0.33847322  0.39008781  0.65489648     0.30400
H1617       H  0.37421234  0.35186928  0.55006785     0.33700
H1618       H  0.34436058  0.36732104  0.57256886     0.30400
H1619       H  0.48250762  0.37386007  0.65449979     0.38200
H1620       H  0.45219664  0.39074864  0.67579136     0.33700
C1621       C  0.43033359  0.18311812  0.64321979    -0.20000
C1622       C  0.43922281  0.15382772  0.65934550     0.36200
C1623       C  0.41517061  0.12751871  0.66293857    -0.26000
C1624       C  0.38243472  0.13004196  0.65102396     0.02600
C1625       C  0.37337002  0.15937300  0.63531156     0.27400
C1626       C  0.39751311  0.18537237  0.63123506    -0.25100
N1627       N  0.47261038  0.15069664  0.67177070    -0.82500
H1628       H  0.42183299  0.10502664  0.67527137     0.13200
C1629       C  0.35722473  0.10260920  0.65645278     0.02600
N1630       N  0.33946840  0.16283549  0.62400935    -0.81100
H1631       H  0.39046963  0.20780001  0.61897524     0.18100
C1632       C  0.33329943  0.10705316  0.67867933    -0.25900
C1633       C  0.30898405  0.08182631  0.68485159     0.36100
C1634       C  0.30895349  0.05109435  0.66871040    -0.20000
C1635       C  0.33249380  0.04702845  0.64593063    -0.25200
C1636       C  0.35658950  0.07258712  0.63958303     0.27500
H1637       H  0.33355475  0.13046768  0.69118570     0.13200
N1638       N  0.28399058  0.08760978  0.70716245    -0.82500
H1639       H  0.33233264  0.02373476  0.63327419     0.18100
N1640       N  0.38046262  0.06819589  0.61619641    -0.81100
H1641       H  0.28770176  0.11130494  0.71705423     0.33700
H1642       H  0.26017396  0.08861703  0.69707421     0.38200
H1643       H  0.37678976  0.04466245  0.60601010     0.33700
H1644       H  0.37525455  0.08680061  0.60060262     0.30400
H1645       H  0.33665512  0.18618614  0.61341390     0.33700
H1646       H  0.33598253  0.14390859  0.60828478     0.30400
H1647       H  0.49000826  0.14914567  0.65462512     0.38200
H1648       H  0.47475586  0.12795574  0.68339490     0.33700
C1649       C  0.91743488  0.83398930  0.49222382    -0.20000
C1650       C  0.91832744  0.85508571  0.46740860     0.36200
C1651       C  0.89174703  0.87846879  0.46263832    -0.26000
C1652       C  0.86443197  0.88125425  0.48214966     0.02600
C1653       C  0.86349916  0.86027905  0.50695349     0.27400
C1654       C  0.89023182  0.83722062  0.51191541    -0.25100
N1655       N  0.94764518  0.85936925  0.95376632    -0.82500
H1656       H  0.89358178  0.90078837  0.94732335     0.13200
C1657       C  0.83614831  0.90498937  0.47540247     0.02600
N1658       N  0.83465491  0.86121661  0.52619705    -0.81100
H1659       H  0.88926260  0.82090762  0.53085638     0.18100
C1660       C  0.80724637  0.89535833  0.94509926    -0.25900
C1661       C  0.78086510  0.91839953  0.93933036     0.36100
C1662       C  0.77731104  0.94789286  0.95684467    -0.20000
C1663       C  0.80732039  0.95946451  0.48064471    -0.25200
C1664       C  0.83445236  0.93773252  0.48795121     0.27500
H1665       H  0.81009210  0.87271530  0.93180605     0.13200
N1666       N  0.75752898  0.91172439  0.91592673    -0.82500
H1667       H  0.80621876  0.98472930  0.49009930     0.18100
N1668       N  0.86116545  0.94946251  0.50683145    -0.81100
H1669       H  0.76408579  0.88931322  0.90496882     0.33700
H1670       H  0.73354995  0.90756843  0.92510548     0.38200
H1671       H  0.85675770  0.97462818  0.51324983     0.33700
H1672       H  0.86063880  0.93490198  0.52576348     0.30400
H1673       H  0.83736778  0.84324120  0.54275543     0.33700
H1674       H  0.83410624  0.88497516  0.53638039     0.30400
H1675       H  0.96815097  0.86069274  0.45814625     0.38200
H1676       H  0.94848064  0.88140478  0.94110333     0.33700
C1677       C  0.63171693  0.95106818  0.91295803    -0.20000
C1678       C  0.60368591  0.94396095  0.93119395     0.36200
C1679       C  0.58262710  0.91594436  0.92494296    -0.26000
C1680       C  0.58935598  0.89427783  0.90128872     0.02600
C1681       C  0.61713041  0.90167910  0.88281446     0.27400
C1682       C  0.63766120  0.93029331  0.88860331    -0.25100
N1683       N  0.59674914  0.96512093  0.95605295    -0.82500
H1684       H  0.56089932  0.91079914  0.93875332     0.13200
C1685       C  0.56705523  0.86402754  0.89632740     0.02600
N1686       N  0.62498838  0.87958542  0.85876606    -0.81100
H1687       H  0.65939658  0.93546248  0.87480553     0.18100
C1688       C  0.55175702  0.85915620  0.86906100    -0.25900
C1689       C  0.52956981  0.83169154  0.86389459     0.36100
C1690       C  0.52196722  0.80879592  0.88670874    -0.20000
C1691       C  0.53745447  0.81352146  0.91390140    -0.25200
C1692       C  0.56030492  0.84050900  0.91881918     0.27500
H1693       H  0.55663619  0.87728503  0.85184343     0.13200
N1694       N  0.51431359  0.82743920  0.83570704    -0.82500
H1695       H  0.53213214  0.79573738  0.93128463     0.18100
N1696       N  0.57696711  0.84393859  0.94649070    -0.81100
H1697       H  0.52329754  0.84583314  0.82123107     0.33700
H1698       H  0.48818218  0.83165431  0.83796745     0.38200
H1699       H  0.56130250  0.84096334  0.46324112     0.33700
H1700       H  0.60304586  0.84059398  0.94305277     0.30400
H1701       H  0.64614004  0.88858539  0.84733359     0.33700
H1702       H  0.63180530  0.85590706  0.86728792     0.30400
H1703       H  0.59055840  0.98938022  0.94840456     0.38200
H1704       H  0.57545529  0.95623329  0.96735096     0.33700
C1705       C  0.65794831  0.09453141  0.48099724    -0.20000
C1706       C  0.65687427  0.12945228  0.47367125     0.36200
C1707       C  0.63831550  0.15212987  0.49138222    -0.26000
C1708       C  0.62025019  0.14041021  0.51564653     0.02600
C1709       C  0.62097888  0.10558834  0.52276344     0.27400
C1710       C  0.64008603  0.08306691  0.50551852    -0.25100
N1711       N  0.67535229  0.14194654  0.44893645    -0.82500
H1712       H  0.63753678  0.17898086  0.48608882     0.13200
C1713       C  0.59999899  0.16468230  0.53318778     0.02600
N1714       N  0.60200827  0.09324322  0.54730042    -0.81100
H1715       H  0.62824657  0.05598707  0.00787648     0.18100
C1716       C  0.56520300  0.16829041  0.52735486    -0.25900
C1717       C  0.54469837  0.18990442  0.54435830     0.36100
C1718       C  0.55943014  0.20799166  0.56772277    -0.20000
C1719       C  0.59435496  0.20460359  0.57331966    -0.25200
C1720       C  0.61486471  0.18317373  0.55618223     0.27500
H1721       H  0.55398031  0.15377836  0.50973022     0.13200
N1722       N  0.50872943  0.19195258  0.53907056    -0.82500
H1723       H  0.60554780  0.21846160  0.59133721     0.18100
N1724       N  0.65060699  0.17988321  0.56212133    -0.81100
H1725       H  0.50173147  0.17543868  0.52225217     0.33700
H1726       H  0.50343737  0.21653699  0.53175816     0.38200
H1727       H  0.65760721  0.19553874  0.57953656     0.33700
H1728       H  0.65505973  0.15484407  0.56873776     0.30400
H1729       H  0.59004283  0.06814357  0.04422897     0.33700
H1730       H  0.61260656  0.10395844  0.56603459     0.30400
H1731       H  0.66356509  0.13224566  0.43034288     0.38200
H1732       H  0.67325863  0.16843011  0.44756426     0.33700
C1733       C  0.94205811  0.82651176  0.79187609    -0.20000
C1734       C  0.94509559  0.85036905  0.76898535     0.36200
C1735       C  0.92020930  0.87589552  0.76578309    -0.26000
C1736       C  0.89212687  0.87765004  0.78449834     0.02600
C1737       C  0.88880996  0.85388166  0.80711921     0.27400
C1738       C  0.91385731  0.82873008  0.81069543    -0.25100
N1739       N  0.97319602  0.84869487  0.74903164    -0.82500
H1740       H  0.92237015  0.89422958  0.74831819     0.13200
C1741       C  0.86587333  0.90408151  0.77977251     0.02600
N1742       N  0.85971743  0.85509806  0.82605966    -0.81100
H1743       H  0.91109492  0.81054894  0.82820237     0.18100
C1744       C  0.83729682  0.89621032  0.76288041    -0.25900
C1745       C  0.81193216  0.92067384  0.75765583     0.36100
C1746       C  0.81544564  0.95376462  0.76951415    -0.20000
C1747       C  0.84376992  0.96130414  0.78695501    -0.25200
C1748       C  0.86912915  0.93677244  0.79210452     0.27500
H1749       H  0.83483230  0.87085667  0.75377991     0.13200
N1750       N  0.78249051  0.91190199  0.74066131    -0.82500
H1751       H  0.84645302  0.98660247  0.79610810     0.18100
N1752       N  0.89843742  0.94500497  0.80941217    -0.81100
H1753       H  0.78398713  0.88669204  0.73342329     0.33700
H1754       H  0.76128213  0.91329392  0.75434204     0.38200
H1755       H  0.89723700  0.97026636  0.81655343     0.33700
H1756       H  0.89772020  0.92982737  0.82802707     0.30400
H1757       H  0.86079904  0.83548993  0.84135533     0.33700
H1758       H  0.86082697  0.87791812  0.83775094     0.30400
H1759       H  0.97020718  0.82657357  0.73660651     0.38200
H1760       H  0.97232160  0.86898364  0.73438763     0.33700
C1761       C  0.66303740  0.96241618  0.73597714    -0.20000
C1762       C  0.63288593  0.97193474  0.72140271     0.36200
C1763       C  0.60607910  0.94826683  0.71911804    -0.26000
C1764       C  0.60919737  0.91543678  0.73075398     0.02600
C1765       C  0.63944082  0.90583241  0.74483452     0.27400
C1766       C  0.66584113  0.92956212  0.74763553    -0.25100
N1767       N  0.62919672  0.00562315  0.70970730    -0.82500
H1768       H  0.58297872  0.95509669  0.70768998     0.13200
C1769       C  0.58286105  0.88969777  0.72447096     0.02600
N1770       N  0.64374198  0.87156624  0.75512681    -0.81100
H1771       H  0.68908491  0.92215134  0.75858188     0.18100
C1772       C  0.58548870  0.87168136  0.69836416    -0.25900
C1773       C  0.56290603  0.84525409  0.69168966     0.36100
C1774       C  0.53637954  0.83723976  0.71135342    -0.20000
C1775       C  0.53382359  0.85532682  0.73768696    -0.25200
C1776       C  0.55695162  0.88156768  0.74449005     0.27500
H1777       H  0.60590671  0.87780677  0.68341277     0.13200
N1778       N  0.56745040  0.82603458  0.66531708    -0.82500
H1779       H  0.51366263  0.84914598  0.75285492     0.18100
N1780       N  0.55386462  0.90033487  0.77124007    -0.81100
H1781       H  0.58777306  0.83562486  0.65315996     0.33700
H1782       H  0.57422117  0.80128578  0.67123095     0.38200
H1783       H  0.53296317  0.89169752  0.78318527     0.33700
H1784       H  0.57537191  0.89535010  0.78385191     0.30400
H1785       H  0.66800658  0.86829854  0.76397882     0.33700
H1786       H  0.62650854  0.86767121  0.77208140     0.30400
H1787       H  0.64602489  0.00779903  0.69220892     0.38200
H1788       H  0.60480306  0.00893035  0.70112506     0.33700
C1789       C  0.56364121  0.18311711  0.88929162    -0.20000
C1790       C  0.58016076  0.15400027  0.90077495     0.36200
C1791       C  0.60405576  0.13635169  0.88367087    -0.26000
C1792       C  0.61233857  0.14725749  0.85558173     0.02600
C1793       C  0.59628330  0.17639007  0.84414319     0.27400
C1794       C  0.57203784  0.19390579  0.86103558    -0.25100
N1795       N  0.57252768  0.14211100  0.92958704    -0.82500
H1796       H  0.61617976  0.11371380  0.89220407     0.13200
C1797       C  0.63687180  0.12704617  0.83800148     0.02600
N1798       N  0.60475807  0.18807355  0.81543622    -0.81100
H1799       H  0.55975163  0.21621275  0.85208014     0.18100
C1800       C  0.62579352  0.11224408  0.81192744    -0.25900
C1801       C  0.64779360  0.09241667  0.79481661     0.36100
C1802       C  0.68169661  0.08718012  0.80403901    -0.20000
C1803       C  0.69262423  0.10139639  0.83042570    -0.25200
C1804       C  0.67069760  0.12177916  0.84729196     0.27500
H1805       H  0.59969118  0.11593426  0.80506425     0.13200
N1806       N  0.63564686  0.07717860  0.76830513    -0.82500
H1807       H  0.71861012  0.09756739  0.83737890     0.18100
N1808       N  0.68281143  0.13778603  0.87342952    -0.81100
H1809       H  0.61030556  0.08385165  0.76449262     0.33700
H1810       H  0.63608145  0.05075947  0.77104302     0.38200
H1811       H  0.70821538  0.13132089  0.87726719     0.33700
H1812       H  0.68220923  0.16410101  0.87013186     0.30400
H1813       H  0.59065210  0.20975071  0.81016670     0.33700
H1814       H  0.63031680  0.19543646  0.81564393     0.30400
H1815       H  0.58185889  0.16022178  0.94422824     0.38200
H1816       H  0.58561762  0.11954688  0.93402236     0.33700
C1817       C  0.52343701  0.65171381  0.85913102    -0.20000
C1818       C  0.55791274  0.65634508  0.86691211     0.36200
C1819       C  0.58113752  0.62974011  0.86246973    -0.26000
C1820       C  0.57072514  0.59872102  0.85041542     0.02600
C1821       C  0.53638499  0.59381585  0.84274988     0.27400
C1822       C  0.51300049  0.62053596  0.84704265    -0.25100
N1823       N  0.56938467  0.68826327  0.87874075    -0.82500
H1824       H  0.60767581  0.63327808  0.86810611     0.13200
C1825       C  0.59686590  0.57242007  0.84506736     0.02600
N1826       N  0.52546403  0.56176794  0.83086025    -0.81100
H1827       H  0.48651418  0.61690816  0.84130813     0.18100
C1828       C  0.60271481  0.54729401  0.86600342    -0.25900
C1829       C  0.63030672  0.52465734  0.86334352     0.36100
C1830       C  0.65282516  0.52783095  0.83945310    -0.20000
C1831       C  0.64593079  0.55232555  0.81799479    -0.25200
C1832       C  0.61816196  0.57459769  0.82057152     0.27500
H1833       H  0.58606515  0.54582736  0.88474316     0.13200
N1834       N  0.63555726  0.49877047  0.88490174    -0.82500
H1835       H  0.66264267  0.55460967  0.79936773     0.18100
N1836       N  0.61199227  0.60015038  0.79888264    -0.81100
H1837       H  0.61729144  0.50061998  0.90136598     0.33700
H1838       H  0.63168129  0.47521652  0.87480005     0.38200
H1839       H  0.63021280  0.59868925  0.78235585     0.33700
H1840       H  0.58852683  0.59476082  0.78923497     0.30400
H1841       H  0.49932969  0.56218060  0.82670324     0.33700
H1842       H  0.53753454  0.55857105  0.81077656     0.30400
H1843       H  0.56637339  0.70672983  0.86260901     0.38200
H1844       H  0.59536836  0.68731500  0.88348988     0.33700
C1845       C  0.81253298  0.53818294  0.81972241    -0.20000
C1846       C  0.81105548  0.56861082  0.83626050     0.36200
C1847       C  0.83729807  0.59278371  0.83380867    -0.26000
C1848       C  0.86489829  0.58747967  0.81511653     0.02600
C1849       C  0.86663985  0.55721099  0.79861637     0.27400
C1850       C  0.84032622  0.53291496  0.80096834    -0.25100
N1851       N  0.78266534  0.57519237  0.85517660    -0.82500
H1852       H  0.83610818  0.61614551  0.84634966     0.13200
C1853       C  0.89143801  0.61429569  0.81296587     0.02600
N1854       N  0.89542947  0.55097125  0.78006916    -0.81100
H1855       H  0.84176781  0.50956783  0.78844120     0.18100
C1856       C  0.91836773  0.61470528  0.83293936    -0.25900
C1857       C  0.94315994  0.64066053  0.83242645     0.36100
C1858       C  0.94094879  0.66677346  0.81135592    -0.20000
C1859       C  0.91369350  0.66627276  0.79151796    -0.25200
C1860       C  0.88879724  0.64053368  0.79229082     0.27500
H1861       H  0.91990000  0.59473803  0.84909085     0.13200
N1862       N  0.97041544  0.64049548  0.85323905    -0.82500
H1863       H  0.91144307  0.68639532  0.77557696     0.18100
N1864       N  0.86023903  0.64151282  0.77278864    -0.81100
H1865       H  0.96771567  0.62017653  0.86768396     0.33700
H1866       H  0.99303805  0.63623258  0.84182908     0.38200
H1867       H  0.86154006  0.66297517  0.75944417     0.33700
H1868       H  0.86182625  0.62034854  0.75906073     0.30400
H1869       H  0.89316869  0.52726300  0.76987125     0.33700
H1870       H  0.89520109  0.56917425  0.76355723     0.30400
H1871       H  0.76105006  0.57777576  0.84213278     0.38200
H1872       H  0.78576922  0.59838200  0.86606410     0.33700
C1873       C  0.56954677  0.31051013  0.67833792    -0.20000
C1874       C  0.58783299  0.33924715  0.66853177     0.36200
C1875       C  0.61090371  0.35564644  0.68719617    -0.26000
C1876       C  0.61594092  0.34425379  0.71575113     0.02600
C1877       C  0.59760800  0.31564196  0.72572234     0.27400
C1878       C  0.57462245  0.29913626  0.70694384    -0.25100
N1879       N  0.58240310  0.35255543  0.63994962    -0.82500
H1880       H  0.62431862  0.37801376  0.67956189     0.13200
C1881       C  0.63871503  0.36392919  0.73546909     0.02600
N1882       N  0.60238881  0.30350107  0.75489279    -0.81100
H1883       H  0.56066266  0.27719156  0.71471862     0.18100
C1884       C  0.62504947  0.37811972  0.76090754    -0.25900
C1885       C  0.64496201  0.39829717  0.77955635     0.36100
C1886       C  0.67961328  0.40418406  0.77279344    -0.20000
C1887       C  0.69323292  0.39024544  0.74718697    -0.25200
C1888       C  0.67322082  0.36992385  0.72857102     0.27500
H1889       H  0.59840626  0.37406039  0.76587307     0.13200
N1890       N  0.62981043  0.41350327  0.80493196    -0.82500
H1891       H  0.71973851  0.39467104  0.74198661     0.18100
N1892       N  0.68785819  0.35504278  0.70287736    -0.81100
H1893       H  0.60430614  0.40630553  0.80689731     0.33700
H1894       H  0.62993401  0.43988711  0.80196450     0.38200
H1895       H  0.71342369  0.36203124  0.70085253     0.33700
H1896       H  0.68742197  0.32862185  0.70547645     0.30400
H1897       H  0.58677931  0.28248001  0.75893182     0.33700
H1898       H  0.62749135  0.29498189  0.75662329     0.30400
H1899       H  0.60571044  0.35260309  0.62899123     0.38200
H1900       H  0.57415303  0.37774526  0.64200424     0.33700
C1901       C  0.66137518  0.55787098  0.62911128    -0.20000
C1902       C  0.64494357  0.55857873  0.65647812     0.36200
C1903       C  0.62140531  0.58466033  0.66266393    -0.26000
C1904       C  0.61380999  0.60978694  0.64207299     0.02600
C1905       C  0.63033882  0.60936710  0.61490465     0.27400
C1906       C  0.65372175  0.58329854  0.60864818    -0.25100
N1907       N  0.65185315  0.53277028  0.67775872    -0.82500
H1908       H  0.60873570  0.58536047  0.68358815     0.13200
C1909       C  0.58913820  0.63693699  0.64958333     0.02600
N1910       N  0.62431066  0.63609877  0.59422126    -0.81100
H1911       H  0.66645746  0.58317496  0.58775276     0.18100
C1912       C  0.60011467  0.66488060  0.66611449    -0.25900
C1913       C  0.57742193  0.69104745  0.67398823     0.36100
C1914       C  0.54316453  0.68928200  0.66475382    -0.20000
C1915       C  0.53234532  0.66133113  0.64813012    -0.25200
C1916       C  0.55481960  0.63480398  0.64088472     0.27500
H1917       H  0.62647247  0.66616980  0.67292163     0.13200
N1918       N  0.58910079  0.71942673  0.69106218    -0.82500
H1919       H  0.50591478  0.65962725  0.64161089     0.18100
N1920       N  0.54256502  0.60504797  0.62592782    -0.81100
H1921       H  0.61481098  0.71657701  0.69632434     0.33700
H1922       H  0.58735710  0.74113377  0.67806980     0.38200
H1923       H  0.51642002  0.60696536  0.62211923     0.33700
H1924       H  0.55417924  0.60398934  0.60553777     0.30400
H1925       H  0.63932551  0.63258325  0.57567873     0.33700
H1926       H  0.59908020  0.63447819  0.58732603     0.30400
H1927       H  0.64287882  0.50965710  0.66945389     0.38200
H1928       H  0.63815223  0.53742976  0.69685124     0.33700
C1929       C  0.92110009  0.68365538  0.53330600    -0.20000
C1930       C  0.90566310  0.68261507  0.56102533     0.36200
C1931       C  0.88312256  0.65596173  0.56774023    -0.26000
C1932       C  0.87594635  0.63005640  0.54755758     0.02600
C1933       C  0.89146181  0.63097795  0.51991403     0.27400
C1934       C  0.91343564  0.65803693  0.51293400    -0.25100
N1935       N  0.91249045  0.70878889  0.58212585    -0.82500
H1936       H  0.87083661  0.65546812  0.58882993     0.13200
C1937       C  0.85201482  0.60233811  0.55586970     0.02600
N1938       N  0.88538726  0.60410118  0.49929010    -0.81100
H1939       H  0.92535464  0.65864028  0.49169536     0.18100
C1940       C  0.82266787  0.59646637  0.53917276    -0.25900
C1941       C  0.79828761  0.57215900  0.54768451     0.36100
C1942       C  0.80350234  0.55327498  0.57340390    -0.20000
C1943       C  0.83306283  0.55891141  0.58983018    -0.25200
C1944       C  0.85754568  0.58286236  0.58115019     0.27500
H1945       H  0.81830086  0.61163765  0.51989549     0.13200
N1946       N  0.76786161  0.56742527  0.53082757    -0.82500
H1947       H  0.83725519  0.54429345  0.60944822     0.18100
N1948       N  0.88812293  0.58743773  0.59784317    -0.81100
H1949       H  0.76817357  0.58301896  0.51243647     0.33700
H1950       H  0.74732661  0.57548316  0.54355112     0.38200
H1951       H  0.88824262  0.57132123  0.61589319     0.33700
H1952       H  0.90858629  0.58006308  0.58473454     0.30400
H1953       H  0.89872971  0.60856893  0.48000203     0.33700
H1954       H  0.89525900  0.58166413  0.50807889     0.30400
H1955       H  0.90271167  0.73160117  0.57397872     0.38200
H1956       H  0.89950661  0.70393416  0.60151966     0.33700
C1957       C  0.55844565  0.29810721  0.98867261    -0.20000
C1958       C  0.57412078  0.32746924  0.97685805     0.36200
C1959       C  0.59767654  0.34583695  0.99363892    -0.26000
C1960       C  0.60493199  0.33653469  0.02232896     0.02600
C1961       C  0.58820851  0.30835217  0.03470167     0.27400
C1962       C  0.56530170  0.28922597  0.01769042    -0.25100
N1963       N  0.56555366  0.33910948  0.94816377    -0.82500
H1964       H  0.60975960  0.36824690  0.98460471     0.13200
C1965       C  0.63071408  0.36201005  0.53706127     0.02600
N1966       N  0.59459758  0.29940710  0.06446290    -0.81100
H1967       H  0.55299796  0.26716015  0.02705306     0.18100
C1968       C  0.61723651  0.38274737  0.55910204    -0.25900
C1969       C  0.63722454  0.40770983  0.57279329     0.36100
C1970       C  0.67150515  0.41222248  0.56449005    -0.20000
C1971       C  0.68517864  0.39115586  0.54270788    -0.25200
C1972       C  0.66235366  0.36323510  0.03097129     0.27500
H1973       H  0.59068020  0.38033327  0.56508305     0.13200
N1974       N  0.62216615  0.42930032  0.59438206    -0.82500
H1975       H  0.71157936  0.39418902  0.53644821     0.18100
N1976       N  0.67645622  0.34328327  0.00766020    -0.81100
H1977       H  0.60138679  0.44171560  0.58500142     0.33700
H1978       H  0.61311904  0.41396323  0.61121324     0.38200
H1979       H  0.70183741  0.34998358  0.00397807     0.33700
H1980       H  0.67654066  0.31787186  0.01436085     0.30400
H1981       H  0.57938924  0.27890031  0.07065762     0.33700
H1982       H  0.61597085  0.30021699  0.56980205     0.30400
H1983       H  0.54005167  0.34668478  0.94859099     0.38200
H1984       H  0.57965575  0.36075224  0.94274474     0.33700
C1985       C  0.04095870  0.31427562  0.80150884    -0.20000
C1986       C  0.07366976  0.31518947  0.78870406     0.36200
C1987       C  0.09647086  0.34120563  0.79647425    -0.26000
C1988       C  0.08727284  0.36624390  0.81668423     0.02600
C1989       C  0.05477973  0.36545087  0.82959448     0.27400
C1990       C  0.03199983  0.33919934  0.82209055    -0.25100
N1991       N  0.08372101  0.28958240  0.76802541    -0.82500
H1992       H  0.12156575  0.34204589  0.78673139     0.13200
C1993       C  0.11207335  0.39323449  0.82392894     0.02600
N1994       N  0.04472851  0.39187818  0.84950481    -0.81100
H1995       H  0.00682776  0.33875336  0.83168324     0.18100
C1996       C  0.11357443  0.42252702  0.80664518    -0.25900
C1997       C  0.13745588  0.44834460  0.81241026     0.36100
C1998       C  0.16037577  0.44443298  0.83579327    -0.20000
C1999       C  0.15862573  0.41510382  0.85312258    -0.25200
C2000       C  0.13482228  0.38933076  0.84730404     0.27500
H2001       H  0.09599315  0.42520409  0.78865955     0.13200
N2002       N  0.13815524  0.47861994  0.79493338    -0.82500
H2003       H  0.17633080  0.41199377  0.87096819     0.18100
N2004       N  0.13424684  0.35881413  0.86448927    -0.81100
H2005       H  0.11978384  0.47731521  0.77853216     0.33700
H2006       H  0.13136126  0.49907019  0.80831451     0.38200
H2007       H  0.15319670  0.35961949  0.88042352     0.33700
H2008       H  0.11103886  0.35796241  0.87552275     0.30400
H2009       H  0.01975590  0.38799486  0.85656523     0.33700
H2010       H  0.06016029  0.39016305  0.86792888     0.30400
H2011       H  0.08441979  0.26627566  0.77894129     0.38200
H2012       H  0.10839429  0.29414528  0.76049341     0.33700
C2013       C  0.03883569  0.16928216  0.74911065    -0.20000
C2014       C  0.04175378  0.13897309  0.76537381     0.36200
C2015       C  0.06585267  0.11435399  0.75733877    -0.26000
C2016       C  0.08730270  0.11920806  0.73340343     0.02600
C2017       C  0.08420125  0.14923023  0.71675990     0.27400
C2018       C  0.05975404  0.17387644  0.72464969    -0.25100
N2019       N  0.01943329  0.13276520  0.78948432    -0.82500
H2020       H  0.06776916  0.09098988  0.76969958     0.13200
C2021       C  0.11296594  0.09256258  0.72638208     0.02600
N2022       N  0.10625019  0.15478774  0.69228650    -0.81100
H2023       H  0.05760092  0.19708987  0.71211873     0.18100
C2024       C  0.11194189  0.07616628  0.69928698    -0.25900
C2025       C  0.13552938  0.05055147  0.69208959     0.36100
C2026       C  0.16134865  0.04178513  0.71216648    -0.20000
C2027       C  0.16156414  0.05737175  0.73966660    -0.25200
C2028       C  0.13765438  0.08264483  0.74698180     0.27500
H2029       H  0.09231347  0.08307881  0.68386293     0.13200
N2030       N  0.13303924  0.03314385  0.66463028    -0.82500
H2031       H  0.18101779  0.05048505  0.75525020     0.18100
N2032       N  0.13861452  0.09866358  0.77511157    -0.81100
H2033       H  0.11282636  0.04275038  0.65237534     0.33700
H2034       H  0.12722750  0.00768036  0.66896143     0.38200
H2035       H  0.15809444  0.08836616  0.78780442     0.33700
H2036       H  0.14453979  0.12434129  0.77200981     0.30400
H2037       H  0.10077203  0.17808652  0.68240939     0.33700
H2038       H  0.13113378  0.15655962  0.70016211     0.30400
H2039       H  0.99509486  0.12992266  0.78076150     0.38200
H2040       H  0.02533419  0.10967754  0.79954687     0.33700
C2041       C  0.77751413  0.08054967  0.89330298    -0.20000
C2042       C  0.79894704  0.10326164  0.90874565     0.36200
C2043       C  0.82228003  0.12351839  0.89340184    -0.26000
C2044       C  0.82519325  0.12146539  0.86306057     0.02600
C2045       C  0.80486869  0.09776018  0.84774536     0.27400
C2046       C  0.78137584  0.07755190  0.86304711    -0.25100
N2047       N  0.79688208  0.10608754  0.93987463    -0.82500
H2048       H  0.83870340  0.14080189  0.90526869     0.13200
C2049       C  0.85047785  0.14357499  0.84797087     0.02600
N2050       N  0.80788369  0.09452320  0.81670849    -0.81100
H2051       H  0.76584041  0.05945058  0.85120964     0.18100
C2052       C  0.87475049  0.12858750  0.82964251    -0.25900
C2053       C  0.89963257  0.14829210  0.81567523     0.36100
C2054       C  0.90076519  0.18379786  0.82040146    -0.20000
C2055       C  0.87690013  0.19886150  0.83910729    -0.25200
C2056       C  0.85137246  0.17920438  0.85255003     0.27500
H2057       H  0.87471581  0.10122591  0.82665276     0.13200
N2058       N  0.92459242  0.13217937  0.79749225    -0.82500
H2059       H  0.87749487  0.22616345  0.84247730     0.18100
N2060       N  0.82600213  0.19531985  0.87040743    -0.81100
H2061       H  0.91974726  0.10609855  0.79559332     0.33700
H2062       H  0.94780454  0.13449014  0.80833213     0.38200
H2063       H  0.83015001  0.22157783  0.87149358     0.33700
H2064       H  0.80246546  0.19185729  0.86024696     0.30400
H2065       H  0.79172975  0.07548015  0.80887041     0.33700
H2066       H  0.79970693  0.11740136  0.80749969     0.30400
H2067       H  0.80654071  0.08352564  0.94859646     0.38200
H2068       H  0.81271949  0.12555401  0.94747596     0.33700
C2069       C  0.79155438  0.41703697  0.65240481    -0.20000
C2070       C  0.79049657  0.41449727  0.68308243     0.36200
C2071       C  0.81199366  0.39117365  0.69725013    -0.26000
C2072       C  0.83412809  0.36994725  0.68152967     0.02600
C2073       C  0.83465166  0.37183280  0.65094989     0.27400
C2074       C  0.81345486  0.39532127  0.63675845    -0.25100
N2075       N  0.76785940  0.43556231  0.69982881    -0.82500
H2076       H  0.81143571  0.38938942  0.72075235     0.13200
C2077       C  0.85752812  0.34679718  0.69744919     0.02600
N2078       N  0.85707454  0.35023611  0.63445354    -0.81100
H2079       H  0.81432856  0.39682345  0.61325765     0.18100
C2080       C  0.85628488  0.31150437  0.69242836    -0.25900
C2081       C  0.87849653  0.28912472  0.70699944     0.36100
C2082       C  0.90245475  0.30246314  0.72684391    -0.20000
C2083       C  0.90325405  0.33766259  0.73207536    -0.25200
C2084       C  0.88135887  0.35996473  0.71741724     0.27500
H2085       H  0.83767965  0.30143539  0.67731606     0.13200
N2086       N  0.87626645  0.25303340  0.70221928    -0.82500
H2087       H  0.92156300  0.34795789  0.74734992     0.18100
N2088       N  0.88357104  0.39604179  0.72240460    -0.81100
H2089       H  0.85688938  0.24757875  0.68742003     0.33700
H2090       H  0.86898618  0.24180371  0.72184274     0.38200
H2091       H  0.90226599  0.40156375  0.73786836     0.33700
H2092       H  0.89145080  0.40733930  0.70297316     0.30400
H2093       H  0.85418511  0.35452795  0.61216799     0.33700
H2094       H  0.88205243  0.35702457  0.63969130     0.30400
H2095       H  0.74302466  0.42774233  0.69514349     0.38200
H2096       H  0.77136365  0.43150483  0.72207821     0.33700
C2097       C  0.15156828  0.46230678  0.57498760    -0.20000
C2098       C  0.15831515  0.42776087  0.58114412     0.36200
C2099       C  0.13225902  0.40352378  0.57796823    -0.26000
C2100       C  0.09965404  0.41314803  0.56889616     0.02600
C2101       C  0.09284528  0.44756701  0.56259340     0.27400
C2102       C  0.11902515  0.47184307  0.56544042    -0.25100
N2103       N  0.19172440  0.41737962  0.59022250    -0.82500
H2104       H  0.13735120  0.37695377  0.58249521     0.13200
C2105       C  0.07326922  0.38654540  0.56516145     0.02600
N2106       N  0.05932079  0.45768212  0.55365639    -0.81100
H2107       H  0.11383160  0.49838054  0.56087417     0.18100
C2108       C  0.04924156  0.38108622  0.58717515    -0.25900
C2109       C  0.02448312  0.35530121  0.58459271     0.36100
C2110       C  0.02394820  0.33446908  0.55942313    -0.20000
C2111       C  0.04800454  0.34039008  0.53732914    -0.25200
C2112       C  0.07266162  0.36613451  0.53999700     0.27500
H2113       H  0.04994315  0.39695062  0.60647254     0.13200
N2114       N  0.00000357  0.35032990  0.60741332    -0.82500
H2115       H  0.04788171  0.32459445  0.51798942     0.18100
N2116       N  0.09743404  0.37142386  0.51744584    -0.81100
H2117       H  0.00455763  0.36710390  0.62466171     0.33700
H2118       H  0.97610006  0.35665717  0.59906756     0.38200
H2119       H  0.09382043  0.35404749  0.50046864     0.33700
H2120       H  0.09329510  0.39562538  0.50874940     0.30400
H2121       H  0.05838496  0.48395338  0.55020123     0.33700
H2122       H  0.05436253  0.44611719  0.53360400     0.30400
H2123       H  0.20842743  0.42209910  0.57299233     0.38200
H2124       H  0.19241482  0.39115847  0.59398189     0.33700
C2125       C  0.14347483  0.04605476  0.02751603    -0.20000
C2126       C  0.11772914  0.04402053  0.04896329     0.36200
C2127       C  0.09243525  0.06946719  0.05021424    -0.26000
C2128       C  0.09297540  0.09715441  0.03103271     0.02600
C2129       C  0.11907349  0.09972339  0.01024560     0.27400
C2130       C  0.14388706  0.07412474  0.00858185    -0.25100
N2131       N  0.11686043  0.01598419  0.06895532    -0.82500
H2132       H  0.07248107  0.06800672  0.06642324     0.13200
C2133       C  0.07260340  0.12374801  0.52830517     0.02600
N2134       N  0.12034746  0.12854617  0.99106273    -0.81100
H2135       H  0.16375533  0.07617831  0.99234571     0.18100
C2136       C  0.08300338  0.15464823  0.54070638    -0.25900
C2137       C  0.06016116  0.18198461  0.54371226     0.36100
C2138       C  0.02624473  0.17826790  0.53400305    -0.20000
C2139       C  0.01267523  0.14976279  0.02119161    -0.25200
C2140       C  0.03526393  0.12196595  0.01995045     0.27500
H2141       H  0.10905139  0.15737257  0.54805348     0.13200
N2142       N  0.07136193  0.21359794  0.55630222    -0.82500
H2143       H  0.98794335  0.14781430  0.01093339     0.18100
N2144       N  0.02594076  0.09123230  0.00491992    -0.81100
H2145       H  0.09692969  0.21207260  0.56241656     0.33700
H2146       H  0.06988853  0.23223326  0.54016544     0.38200
H2147       H  0.00141483  0.09334572  0.99632573     0.33700
H2148       H  0.04241533  0.08840293  0.98723196     0.30400
H2149       H  0.14146814  0.12695299  0.97731099     0.33700
H2150       H  0.09882459  0.12756040  0.97774246     0.30400
H2151       H  0.13783156  0.01847584  0.08276375     0.38200
H2152       H  0.09533446  0.01750633  0.08225750     0.33700
C2153       C  0.89787944  0.20085483  0.60766998    -0.20000
C2154       C  0.87162987  0.21519017  0.62468563     0.36200
C2155       C  0.85309123  0.19415357  0.64382863    -0.26000
C2156       C  0.86077086  0.15938863  0.64643578     0.02600
C2157       C  0.88759172  0.14540757  0.63000314     0.27400
C2158       C  0.90546877  0.16612686  0.61041424    -0.25100
N2159       N  0.86328872  0.25064770  0.62179693    -0.82500
H2160       H  0.83211362  0.20460068  0.65624630     0.13200
C2161       C  0.83958309  0.13711801  0.66514782     0.02600
N2162       N  0.89642833  0.11012374  0.63329773    -0.81100
H2163       H  0.92579936  0.15523496  0.59746969     0.18100
C2164       C  0.81852536  0.11286275  0.65187887    -0.25900
C2165       C  0.79944841  0.08967541  0.66846617     0.36100
C2166       C  0.80042435  0.09166101  0.69919538    -0.20000
C2167       C  0.82182754  0.11595937  0.71241214    -0.25200
C2168       C  0.84180485  0.13833616  0.69568368     0.27500
H2169       H  0.81759377  0.11159167  0.62835137     0.13200
N2170       N  0.77964520  0.06387515  0.65410508    -0.82500
H2171       H  0.82328255  0.11731286  0.73590833     0.18100
N2172       N  0.86472808  0.16185596  0.70950354    -0.81100
H2173       H  0.78107408  0.06659499  0.63152847     0.33700
H2174       H  0.79077738  0.04037690  0.65888443     0.38200
H2175       H  0.86348426  0.15943910  0.73211688     0.33700
H2176       H  0.88946677  0.15507338  0.70346720     0.30400
H2177       H  0.91668911  0.10372048  0.61961169     0.33700
H2178       H  0.90508596  0.10678493  0.65459628     0.30400
H2179       H  0.85471820  0.25452985  0.60055150     0.38200
H2180       H  0.84303412  0.25704664  0.63549087     0.33700
C2181       C  0.88155313  0.30104549  0.98581140    -0.20000
C2182       C  0.86317786  0.33092760  0.99314096     0.36200
C2183       C  0.84263576  0.34670044  0.97205884    -0.26000
C2184       C  0.83927486  0.33313525  0.94397952     0.02600
C2185       C  0.85626723  0.30257049  0.93697830     0.27400
C2186       C  0.87743878  0.28704963  0.95782952    -0.25100
N2187       N  0.86777296  0.34156697  0.53423062    -0.82500
H2188       H  0.82960484  0.37020964  0.97738720     0.13200
C2189       C  0.81960462  0.35265290  0.92186700     0.02600
N2190       N  0.85199895  0.28749069  0.90870842    -0.81100
H2191       H  0.89094337  0.26395603  0.95210070     0.18100
C2192       C  0.83624801  0.36443934  0.89683646    -0.25900
C2193       C  0.81991575  0.38644407  0.87716436     0.36100
C2194       C  0.78615236  0.39711169  0.88274922    -0.20000
C2195       C  0.76925637  0.38458604  0.90742775    -0.25200
C2196       C  0.78540606  0.36200354  0.92672254     0.27500
H2197       H  0.86254198  0.35735904  0.89316669     0.13200
N2198       N  0.83788719  0.39866611  0.85203407    -0.82500
H2199       H  0.74318347  0.39215254  0.91151393     0.18100
N2200       N  0.76722383  0.34837199  0.95118655    -0.81100
H2201       H  0.86214099  0.38784344  0.85083128     0.33700
H2202       H  0.84144188  0.42486909  0.85469268     0.38200
H2203       H  0.74230229  0.35766182  0.95167479     0.33700
H2204       H  0.76542897  0.32204651  0.94817178     0.30400
H2205       H  0.86623478  0.26509992  0.90696138     0.33700
H2206       H  0.82645308  0.28046438  0.90668391     0.30400
H2207       H  0.85562347  0.32198177  0.54555776     0.38200
H2208       H  0.85333784  0.36349920  0.53795025     0.33700
loop_ 
_geom_bond_atom_site_label_1 
_geom_bond_atom_site_label_2 
_geom_bond_distance 
_geom_bond_site_symmetry_2 
_ccdc_geom_bond_type 
In1           O3   2.248       .  S
In1           O4   2.243       .  S
In1          O12   2.247       .  S
In1           O9   2.261       .  S
In1          O10   2.229       .  S
In1          O13   2.231       .  S
In1        O1110   2.270   1_554  S
In1        O1112   2.258       .  S
C2           O10   1.261       .  A
C2         O1112   1.266       .  A
C2         C1034   1.481   1_655  S
O3           C11   1.263       .  A
O4           C11   1.263       .  A
C5            O6   1.264       .  A
C5         O1116   1.258       .  A
C5         C1077   1.493       .  S
O6        In1105   2.270       .  S
C7            O9   1.263       .  A
C7           O13   1.259       .  A
C7         C1049   1.481       .  S
O8        In1105   2.259       .  S
O8         C1106   1.266   1_655  A
C11        C1006   1.484   1_655  S
O12        C1109   1.259       .  A
In14         O16   2.231   1_655  S
In14         O17   2.254   1_655  S
In14         O25   2.226       .  S
In14         O19   2.248       .  S
In14         O21   2.245       .  S
In14         O22   2.265       .  S
In14         O23   2.223   1_655  S
In14         O26   2.228       .  S
C15          O21   1.266   1_455  A
C15          O23   1.262       .  A
C15         C881   1.475       .  S
O16          C24   1.262       .  A
O17          C24   1.267       .  A
C18          O25   1.260       .  A
C18          O19   1.264       .  A
C18         C950   1.474       .  S
C20          O22   1.264       .  A
C20          O26   1.256       .  A
C20         C978   1.474       .  S
C24         C909   1.488       .  S
In27         O29   2.226       .  S
In27         O30   2.245       .  S
In27         O38   2.228       .  S
In27         O32   2.254       .  S
In27         O34   2.256       .  S
In27         O35   2.263       .  S
In27         O36   2.235       .  S
In27         O39   2.213       .  S
C28          O34   1.265       .  A
C28          O36   1.262       .  A
C28         C838   1.487       .  S
O29          C37   1.261       .  A
O30          C37   1.265       .  A
C31          O38   1.259       .  A
C31          O32   1.265       .  A
C31         C866   1.485       .  S
C33          O35   1.265       .  A
C33          O39   1.261       .  A
C33         C965   1.485       .  S
C37         C797   1.478       .  S
In40         O42   2.233       .  S
In40         O43   2.263       .  S
In40         O51   2.250       .  S
In40         O45   2.271       .  S
In40         O47   2.265       .  S
In40         O48   2.271       .  S
In40         O49   2.238       .  S
In40         O52   2.248       .  S
C41          O47   1.266       .  A
C41          O49   1.261       .  A
C41         C741   1.484       .  S
O42          C50   1.262       .  A
O43          C50   1.267       .  A
C44          O51   1.261       .  A
C44          O45   1.265       .  A
C44         C782   1.494       .  S
C46          O48   1.264       .  A
C46          O52   1.260       .  A
C46        C1090   1.490       .  S
C50         C726   1.489       .  S
In53         O55   2.233   1_545  S
In53         O56   2.273       .  S
In53         O64   2.258       .  S
In53         O58   2.250       .  S
In53         O60   2.246       .  S
In53         O61   2.282       .  S
In53         O62   2.237   1_545  S
In53         O65   2.229       .  S
C54          O60   1.265   1_565  A
C54          O62   1.264       .  A
C54         C657   1.487       .  S
O55          C63   1.260       .  A
O56          C63   1.267   1_545  A
C57          O64   1.261       .  A
C57          O58   1.261       .  A
C57        C1062   1.492       .  S
C59          O61   1.265       .  A
C59          O65   1.257       .  A
C59         C698   1.486       .  S
C63         C642   1.484       .  S
In66         O68   2.246   1_545  S
In66         O77   2.220       .  S
In66         O71   2.264       .  S
In66         O73   2.261   1_545  S
In66         O75   2.231   1_545  S
In66         O78   2.257       .  S
In66       O1173   2.255   1_545  S
In66       O1178   2.237       .  S
C67          O73   1.266       .  A
C67          O75   1.260       .  A
C67         C573   1.480       .  S
O68          C76   1.260       .  A
O69       In1170   2.262   1_565  S
O69        C1180   1.267       .  A
C70          O77   1.259       .  A
C70          O71   1.267       .  A
C70         C937   1.488       .  S
C72          O74   1.266       .  A
C72        O1182   1.264       .  A
C72         C601   1.481       .  S
O74       In1170   2.241       .  S
C76        O1173   1.264       .  A
C76         C558   1.485       .  S
O78        C1176   1.263       .  A
In79         O81   2.226       .  S
In79         O82   2.273       .  S
In79         O90   2.244       .  S
In79         O84   2.261       .  S
In79         O86   2.246       .  S
In79         O87   2.266       .  S
In79         O88   2.252       .  S
In79         O91   2.236       .  S
C80          O86   1.263       .  A
C80          O88   1.262       .  A
C80         C489   1.482       .  S
O81          C89   1.258       .  A
O82          C89   1.264       .  A
C83          O90   1.260       .  A
C83          O84   1.261       .  A
C83         C614   1.480       .  S
C85          O87   1.266       .  A
C85          O91   1.262       .  A
C85         C769   1.494       .  S
C89         C517   1.486       .  S
In92         O94   2.240       .  S
In92         O95   2.265       .  S
In92        O103   2.231       .  S
In92         O97   2.279       .  S
In92         O99   2.269       .  S
In92        O100   2.265       .  S
In92        O101   2.235       .  S
In92        O104   2.236       .  S
C93          O99   1.266       .  A
C93         O101   1.261       .  A
C93         C474   1.489       .  S
O94         C102   1.261       .  A
O95         C102   1.265       .  A
C96         O103   1.259       .  A
C96          O97   1.265       .  A
C96         C853   1.495       .  S
C98         O100   1.265       .  A
C98         O104   1.260       .  A
C98         C685   1.492       .  S
C102        C446   1.487       .  S
In105       O107   2.238       .  S
In105       O108   2.274       .  S
In105       O116   2.243       .  S
In105       O110   2.253       .  S
In105       O112   2.253       .  S
In105       O113   2.265       .  S
In105       O114   2.244       .  S
In105       O117   2.236       .  S
C106        O112   1.263       .  A
C106        O114   1.261       .  A
C106        C502   1.480       .  S
O107        C115   1.258       .  A
O108        C115   1.264       .  A
C109        O116   1.261       .  A
C109        O110   1.261       .  A
C109        C377   1.486       .  S
C111        O113   1.266       .  A
C111        O117   1.261       .  A
C111        C418   1.490       .  S
C115        C993   1.488       .  S
In118       O120   2.226       .  S
In118       O121   2.261       .  S
In118       O129   2.233       .  S
In118       O123   2.253       .  S
In118       O125   2.251       .  S
In118       O126   2.262       .  S
In118       O127   2.229       .  S
In118       O130   2.227       .  S
C119        O125   1.267       .  A
C119        O127   1.263       .  A
C119        C894   1.485       .  S
O120        C128   1.263       .  A
O121        C128   1.268       .  A
C122        O129   1.260       .  A
C122        O123   1.266       .  A
C122        C349   1.485       .  S
C124        O126   1.267       .  A
C124        O130   1.259       .  A
C124        C334   1.489       .  S
C128        C433   1.487       .  S
In131       O133   2.232       .  S
In131       O134   2.273       .  S
In131       O142   2.230       .  S
In131       O136   2.254       .  S
In131       O138   2.245       .  S
In131       O139   2.280       .  S
In131       O140   2.229       .  S
In131       O143   2.216       .  S
C132        O138   1.264       .  A
C132        O140   1.262       .  A
C132        C810   1.476       .  S
O133        C141   1.260       .  A
O134        C141   1.267       .  A
C135        O142   1.261       .  A
C135        O136   1.263       .  A
C135        C306   1.478       .  S
C137        O139   1.268       .  A
C137        O143   1.258       .  A
C137        C362   1.492       .  S
C141        C670   1.490       .  S
In144       O146   2.226       .  S
In144       O147   2.270       .  S
In144       O155   2.254       .  S
In144       O149   2.253       .  S
In144       O151   2.262       .  S
In144       O152   2.250       .  S
In144       O153   2.237       .  S
In144       O156   2.237       .  S
C145        O151   1.266       .  A
C145        O153   1.260       .  A
C145        C586   1.487       .  S
O146        C154   1.261       .  A
O147        C154   1.266       .  A
C148        O155   1.262       .  A
C148        O149   1.264       .  A
C148        C405   1.491       .  S
C150        O152   1.265       .  A
C150        O156   1.260       .  A
C150        C265   1.489       .  S
C154        C713   1.488       .  S
In157       O159   2.207   1_565  S
In157       O160   2.268       .  S
In157       O168   2.248       .  S
In157       O162   2.253       .  S
In157       O164   2.252   1_565  S
In157       O165   2.262       .  S
In157       O166   2.237   1_565  S
In157       O169   2.223       .  S
C158        O164   1.266       .  A
C158        O166   1.262       .  A
C158        C922   1.486       .  S
O159        C167   1.258       .  A
O160        C167   1.267   1_565  A
C161        O168   1.260       .  A
C161        O162   1.263       .  A
C161        C278   1.485       .  S
C163        O165   1.266       .  A
C163        O169   1.260       .  A
C163        C250   1.483       .  S
C167        C530   1.481       .  S
In170       O172   2.237   1_565  S
In170       O173   2.269       .  S
In170       O181   2.229       .  S
In170       O178   2.262       .  S
In170       O179   2.227   1_565  S
In170       O182   2.253       .  S
In170      O1279   2.256       .  S
In170      O1281   2.267       .  S
C171        O179   1.261       .  A
C171       O1281   1.266   1_545  A
C171       C1021   1.490       .  S
O172        C180   1.260       .  A
O173        C180   1.266   1_565  A
C174        O175   1.266       .  A
C174       O1285   1.260       .  A
C174        C293   1.479       .  S
O175      In1274   2.254       .  S
C176        O178   1.265       .  A
C176        O182   1.261       .  A
C176        C222   1.489       .  S
O177      In1274   2.271       .  S
O177       C1275   1.265   1_565  A
C180        C461   1.492       .  S
O181       C1278   1.261       .  A
In183       O185   2.239   1_554  S
In183       O186   2.243       .  S
In183       O194   2.204   1_655  S
In183       O190   2.251   1_554  S
In183       O191   2.254   1_655  S
In183       O192   2.222       .  S
In183       O195   2.243   1_655  S
In183      O1292   2.261   1_654  S
C184        O190   1.266       .  A
C184        O192   1.259   1_556  A
C184        C545   1.472       .  S
O185        C193   1.264   1_556  A
O186        C193   1.266       .  A
C187        O194   1.259   1_556  A
C187       O1292   1.267       .  A
C187       C1425   1.482       .  S
O188      In1287   2.261   1_455  S
O188       C1291   1.267       .  A
C189        O191   1.264       .  A
C189        O195   1.259       .  A
C189        C237   1.488       .  S
C193        C825   1.483       .  S
In196       O198   2.242   1_455  S
In196       O199   2.273   1_455  S
In196       O207   2.243       .  S
In196       O201   2.264       .  S
In196       O203   2.261   1_455  S
In196       O204   2.250       .  S
In196       O205   2.239   1_455  S
In196       O208   2.247       .  S
C197        O203   1.264       .  A
C197        O205   1.261       .  A
C197        C754   1.485       .  S
O198        C206   1.260       .  A
O199        C206   1.264       .  A
C200        O207   1.258       .  A
C200        O201   1.262       .  A
C200        C209   1.482       .  S
C202        O204   1.264       .  A
C202        O208   1.262       .  A
C202        C390   1.489       .  S
C206        C629   1.494       .  S
C209        C210   1.412       .  A
C209        C214   1.405       .  A
C210        C211   1.407       .  A
C210        N215   1.438       .  S
C211        C212   1.402       .  A
C211        H216   1.084       .  S
C212        C217   1.486       .  S
C212        C213   1.412       .  A
C213        C214   1.409       .  A
C213        N218   1.439       .  S
C214        H219   1.084       .  S
N215        H235   1.046       .  S
N215        H236   1.046       .  S
C217        C220   1.403       .  A
C217        C224   1.410       .  A
N218        H233   1.045       .  S
N218        H234   1.043       .  S
C220        C221   1.408       .  A
C220        H225   1.084       .  S
C221        C222   1.414       .  A
C221        N226   1.438       .  S
C222        C223   1.407       .  A
C223        C224   1.410       .  A
C223        H227   1.084       .  S
C224        N228   1.439       .  S
N226        H229   1.045       .  S
N226        H230   1.046       .  S
N228        H231   1.045       .  S
N228        H232   1.043       .  S
C237        C238   1.417       .  A
C237        C242   1.405       .  A
C238        C239   1.408       .  A
C238        N243   1.438       .  S
C239        C240   1.403       .  A
C239        H244   1.084       .  S
C240        C245   1.485       .  S
C240        C241   1.416       .  A
C241        C242   1.401       .  A
C241        N246   1.438       .  S
C242        H247   1.084       .  S
N243        H263   1.046       .  S
N243        H264   1.046       .  S
C245        C248   1.401       .  A
C245        C252   1.409       .  A
N246        H261   1.045       .  S
N246        H262   1.043       .  S
C248        C249   1.405       .  A
C248        H253   1.084       .  S
C249        C250   1.415       .  A
C249        N254   1.438       .  S
C250        C251   1.403       .  A
C251        C252   1.408       .  A
C251        H255   1.080       .  S
C252        N256   1.437       .  S
N254        H257   1.046       .  S
N254        H258   1.046       .  S
N256        H259   1.045       .  S
N256        H260   1.045       .  S
C265        C266   1.417       .  A
C265        C270   1.405       .  A
C266        C267   1.406       .  A
C266        N271   1.438       .  S
C267        C268   1.404       .  A
C267        H272   1.083       .  S
C268        C273   1.493       .  S
C268        C269   1.411       .  A
C269        C270   1.405       .  A
C269        N274   1.437       .  S
C270        H275   1.079       .  S
N271        H291   1.045       .  S
N271        H292   1.046       .  S
C273        C276   1.405       .  A
C273        C280   1.413       .  A
N274        H289   1.045       .  S
N274        H290   1.045       .  S
C276        C277   1.408       .  A
C276        H281   1.083       .  S
C277        C278   1.414       .  A
C277        N282   1.437       .  S
C278        C279   1.403       .  A
C279        C280   1.406       .  A
C279        H283   1.084       .  S
C280        N284   1.438       .  S
N282        H285   1.046       .  S
N282        H286   1.046       .  S
N284        H287   1.045       .  S
N284        H288   1.046       .  S
C293        C294   1.414       .  A
C293        C298   1.403       .  A
C294        C295   1.406       .  A
C294        N299   1.438       .  S
C295        C296   1.400       .  A
C295        H300   1.084       .  S
C296        C301   1.481       .  S
C296        C297   1.411       .  A
C297        C298   1.406       .  A
C297        N302   1.437       .  S
C298        H303   1.084       .  S
N299        H320   1.045       .  S
N299       H1423   1.045       .  S
C301        C304   1.404       .  A
C301        C308   1.409       .  A
N302        H317   1.046       .  S
N302        H318   1.042       .  S
C304        C305   1.408       .  A
C304        H309   1.084       .  S
C305        C306   1.412       .  A
C305        N310   1.438       .  S
C306        C307   1.404       .  A
C307        C308   1.405       .  A
C307        H311   1.084       .  S
C308        N312   1.439       .  S
N310        H313   1.046       .  S
N310        H314   1.045       .  S
N312        H315   1.046       .  S
N312        H316   1.043       .  S
H319       N1403   1.045       .  S
C321       C1291   1.479       .  S
C321        C322   1.414       .  A
C321        C326   1.404       .  A
C322        C323   1.402       .  A
C322       N1431   1.439       .  S
C323        C324   1.401       .  A
C323        H328   1.084       .  S
C324        C329   1.486       .  S
C324        C325   1.412       .  A
C325        C326   1.409       .  A
C325        N330   1.437       .  S
C326        H331   1.084       .  S
N327       C1426   1.439       .  S
N327        H347   1.045   1_556  S
N327        H348   1.046   1_556  S
C329        C332   1.400       .  A
C329        C336   1.411       .  A
N330        H345   1.045       .  S
N330        H346   1.045       .  S
C332        C333   1.406       .  A
C332        H337   1.084       .  S
C333        C334   1.420       .  A
C333        N338   1.438       .  S
C334        C335   1.405       .  A
C335        C336   1.406       .  A
C335        H339   1.083       .  S
C336        N340   1.438       .  S
N338        H341   1.046       .  S
N338        H342   1.046       .  S
N340        H343   1.046       .  S
N340        H344   1.046       .  S
C349        C350   1.416       .  A
C349        C354   1.404       .  A
C350        C351   1.407       .  A
C350        N355   1.438       .  S
C351        C352   1.404       .  A
C351        H356   1.084       .  S
C352        C357   1.491       .  S
C352        C353   1.412       .  A
C353        C354   1.406       .  A
C353        N358   1.438       .  S
C354        H359   1.084       .  S
N355        H375   1.045       .  S
N355        H376   1.046       .  S
C357        C360   1.401       .  A
C357        C364   1.412       .  A
N358        H373   1.045       .  S
N358        H374   1.046       .  S
C360        C361   1.405       .  A
C360        H365   1.084       .  S
C361        C362   1.419       .  A
C361        N366   1.438       .  S
C362        C363   1.405       .  A
C363        C364   1.409       .  A
C363        H367   1.079       .  S
C364        N368   1.438       .  S
N366        H369   1.046       .  S
N366        H370   1.046       .  S
N368        H371   1.044       .  S
N368        H372   1.046       .  S
C377        C378   1.416       .  A
C377        C382   1.405       .  A
C378        C379   1.410       .  A
C378        N383   1.437       .  S
C379        C380   1.403       .  A
C379        H384   1.084       .  S
C380        C385   1.484       .  S
C380        C381   1.408       .  A
C381        C382   1.403       .  A
C381        N386   1.438       .  S
C382        H387   1.083       .  S
N383        H403   1.046       .  S
N383        H404   1.045       .  S
C385        C388   1.401       .  A
C385        C392   1.409       .  A
N386        H401   1.046       .  S
N386        H402   1.046       .  S
C388        C389   1.406       .  A
C388        H393   1.084       .  S
C389        C390   1.415       .  A
C389        N394   1.437       .  S
C390        C391   1.409       .  A
C391        C392   1.408       .  A
C391        H395   1.083       .  S
C392        N396   1.438       .  S
N394        H397   1.046       .  S
N394        H398   1.046       .  S
N396        H399   1.046       .  S
N396        H400   1.046       .  S
C405        C406   1.416       .  A
C405        C410   1.405       .  A
C406        C407   1.409       .  A
C406        N411   1.438       .  S
C407        C408   1.404       .  A
C407        H412   1.084       .  S
C408       C1517   1.493       .  S
C408       C1513   1.412       .  A
C409       C1512   1.413       .  A
C409       C1514   1.408       .  A
C409        N414   1.438   1_556  S
C410       C1513   1.408       .  A
C410        H415   1.083       .  S
N411        H431   1.046       .  S
N411        H432   1.045       .  S
C413       C1512   1.493       .  S
C413        C416   1.402   1_556  A
C413        C420   1.413       .  A
N414        H429   1.046       .  S
N414        H430   1.045       .  S
C416        C417   1.405       .  A
C416        H421   1.084       .  S
C417        C418   1.417       .  A
C417        N422   1.438       .  S
C418        C419   1.406       .  A
C419        C420   1.411   1_554  A
C419        H423   1.084   1_554  S
C420       N1528   1.437       .  S
N422        H425   1.046       .  S
N422        H426   1.044       .  S
N424       C1524   1.437       .  S
N424        H427   1.045       .  S
N424        H428   1.045       .  S
C433        C434   1.414       .  A
C433        C438   1.407       .  A
C434        C435   1.411       .  A
C434        N439   1.437       .  S
C435        C436   1.404       .  A
C435        H440   1.084       .  S
C436        C441   1.485       .  S
C436        C437   1.408       .  A
C437        C438   1.406       .  A
C437        N442   1.438       .  S
C438        H443   1.084       .  S
N439        H459   1.045       .  S
N439        H460   1.046       .  S
C441        C444   1.400       .  A
C441        C448   1.411       .  A
N442        H457   1.046       .  S
N442        H458   1.044       .  S
C444        C445   1.407       .  A
C444        H449   1.084       .  S
C445        C446   1.415       .  A
C445        N450   1.438       .  S
C446        C447   1.406       .  A
C447        C448   1.410       .  A
C447        H451   1.084       .  S
C448        N452   1.438       .  S
N450        H453   1.045       .  S
N450        H454   1.046       .  S
N452        H455   1.045       .  S
N452        H456   1.045       .  S
C461        C462   1.416       .  A
C461        C466   1.408       .  A
C462        C463   1.412       .  A
C462        N467   1.437   1_545  S
C463        C464   1.403       .  A
C463        H468   1.084       .  S
C464        C469   1.486       .  S
C464        C465   1.408       .  A
C465        C466   1.406       .  A
C465        N470   1.439       .  S
C466        H471   1.083       .  S
N467        H487   1.045       .  S
N467        H488   1.045       .  S
C469        C472   1.400       .  A
C469        C476   1.411       .  A
N470        H485   1.045       .  S
N470        H486   1.045       .  S
C472        C473   1.406       .  A
C472        H477   1.084       .  S
C473        C474   1.416       .  A
C473        N478   1.438       .  S
C474        C475   1.407       .  A
C475        C476   1.411       .  A
C475        H479   1.083       .  S
C476        N480   1.438       .  S
N478        H481   1.046       .  S
N478        H482   1.045       .  S
N480        H484   1.044       .  S
N480       H1587   1.046       .  S
H483       N1584   1.046       .  S
C489        C490   1.413       .  A
C489        C494   1.402       .  A
C490        C491   1.409       .  A
C490        N495   1.438       .  S
C491        C492   1.406       .  A
C491        H496   1.083       .  S
C492        C497   1.493       .  S
C492        C493   1.414       .  A
C493        C494   1.405       .  A
C493        N498   1.438       .  S
C494        H499   1.084       .  S
N495        H515   1.046       .  S
N495        H516   1.046       .  S
C497        C500   1.405       .  A
C497        C504   1.414       .  A
N498        H513   1.046       .  S
N498        H514   1.046       .  S
C500        C501   1.406       .  A
C500        H505   1.083       .  S
C501        C502   1.412       .  A
C501        N506   1.437       .  S
C502        C503   1.402       .  A
C503        C504   1.407       .  A
C503        H507   1.084       .  S
C504        N508   1.438       .  S
N506        H509   1.046       .  S
N506        H510   1.044       .  S
N508        H511   1.046       .  S
N508        H512   1.046       .  S
C517        C518   1.415       .  A
C517        C522   1.408       .  A
C518        C519   1.409       .  A
C518        N523   1.437       .  S
C519        C520   1.402       .  A
C519        H524   1.084       .  S
C520        C525   1.477       .  S
C520        C521   1.405       .  A
C521        C522   1.403       .  A
C521        N526   1.438       .  S
C522        H527   1.083       .  S
N523        H543   1.045       .  S
N523        H544   1.046       .  S
C525        C528   1.396       .  A
C525        C532   1.409       .  A
N526        H541   1.046       .  S
N526        H542   1.045       .  S
C528        C529   1.401       .  A
C528        H533   1.084       .  S
C529        C530   1.417       .  A
C529        N534   1.439       .  S
C530        C531   1.406       .  A
C531        C532   1.410       .  A
C531        H535   1.084       .  S
C532        N536   1.437       .  S
N534        H537   1.045       .  S
N534        H538   1.045       .  S
N536        H539   1.045       .  S
N536        H540   1.045       .  S
C545        C546   1.410       .  A
C545        C550   1.404       .  A
C546        C547   1.407       .  A
C546       N1655   1.438       .  S
C547        C548   1.402       .  A
C547       H1656   1.084       .  S
C548        C553   1.475       .  S
C548        C549   1.407       .  A
C549        C550   1.403       .  A
C549        N554   1.438   1_556  S
C550        H555   1.084   1_556  S
N551       C1650   1.437       .  S
N551        H572   1.045       .  S
N551       H1675   1.046       .  S
H552       C1651   1.084       .  S
C553        C560   1.408       .  A
C553       C1660   1.397       .  A
N554        H569   1.046       .  S
N554        H570   1.045       .  S
C556        C557   1.408       .  A
C556       C1657   1.402       .  A
C556        H561   1.084       .  S
C557        C558   1.415       .  A
C557        N562   1.438       .  S
C558       C1663   1.405       .  A
C559        C560   1.407       .  A
C559       C1662   1.405       .  A
C559        H563   1.083       .  S
C560        N564   1.438   1_556  S
N562        H565   1.046       .  S
N562        H566   1.046       .  S
N564        H567   1.046       .  S
N564        H568   1.045       .  S
H571       N1655   1.046       .  S
C573        C574   1.412       .  A
C573        C578   1.402       .  A
C574        C575   1.408       .  A
C574        N579   1.438       .  S
C575        C576   1.405       .  A
C575        H580   1.084       .  S
C576        C581   1.492       .  S
C576        C577   1.413       .  A
C577        C578   1.408       .  A
C577        N582   1.438       .  S
C578        H583   1.084       .  S
N579        H599   1.046   1_565  S
N579        H600   1.046       .  S
C581        C584   1.404       .  A
C581        C588   1.413       .  A
N582        H597   1.046       .  S
N582        H598   1.046       .  S
C584        C585   1.408       .  A
C584        H589   1.084       .  S
C585        C586   1.416       .  A
C585        N590   1.438       .  S
C586        C587   1.403       .  A
C587        C588   1.408       .  A
C587        H591   1.083       .  S
C588        N592   1.438       .  S
N590        H593   1.046       .  S
N590        H594   1.046       .  S
N592        H596   1.046       .  S
N592       H1699   1.046       .  S
H595       N1696   1.046       .  S
C601        C602   1.414       .  A
C601        C606   1.403   1_556  A
C602        C603   1.410       .  A
C602        N607   1.437       .  S
C603        C604   1.402   1_556  A
C603        H608   1.084       .  S
C604        C609   1.483       .  S
C604        C605   1.409       .  A
C605        C606   1.406       .  A
C605        N610   1.438       .  S
C606       H1715   1.084       .  S
N607        H627   1.044       .  S
N607        H628   1.045       .  S
C609        C612   1.403       .  A
C609        C616   1.409       .  A
N610        H626   1.045       .  S
N610       H1729   1.046       .  S
H611       C1710   1.084       .  S
C612        C613   1.409       .  A
C612        H617   1.084       .  S
C613        C614   1.413       .  A
C613        N618   1.437       .  S
C614        C615   1.403       .  A
C615        C616   1.405       .  A
C615        H619   1.084       .  S
C616        N620   1.437       .  S
N618        H621   1.045       .  S
N618        H622   1.045       .  S
N620        H623   1.046       .  S
N620        H624   1.046       .  S
H625       N1714   1.046       .  S
C629        C630   1.418       .  A
C629        C634   1.408       .  A
C630        C631   1.413       .  A
C630        N635   1.437       .  S
C631        C632   1.403       .  A
C631        H636   1.084       .  S
C632        C637   1.486       .  S
C632        C633   1.407       .  A
C633        C634   1.405       .  A
C633        N638   1.438       .  S
C634        H639   1.083       .  S
N635        H655   1.046       .  S
N635        H656   1.046       .  S
C637        C640   1.400       .  A
C637        C644   1.411       .  A
N638        H653   1.045       .  S
N638        H654   1.046       .  S
C640        C641   1.406       .  A
C640        H645   1.084       .  S
C641        C642   1.414       .  A
C641        N646   1.438       .  S
C642        C643   1.405       .  A
C643        C644   1.412       .  A
C643        H647   1.084       .  S
C644        N648   1.437       .  S
N646        H649   1.046       .  S
N646        H650   1.046       .  S
N648        H651   1.046       .  S
N648        H652   1.045       .  S
C657        C658   1.416       .  A
C657        C662   1.406       .  A
C658        C659   1.410       .  A
C658        N663   1.438       .  S
C659        C660   1.402       .  A
C659        H664   1.084       .  S
C660        C665   1.483       .  S
C660        C661   1.408       .  A
C661        C662   1.406       .  A
C661        N666   1.438       .  S
C662        H667   1.084       .  S
N663        H683   1.046       .  S
N663        H684   1.045       .  S
C665        C668   1.398       .  A
C665        C672   1.411       .  A
N666        H681   1.045       .  S
N666        H682   1.044       .  S
C668        C669   1.405       .  A
C668        H673   1.084       .  S
C669        C670   1.418       .  A
C669        N674   1.437       .  S
C670        C671   1.407       .  A
C671        C672   1.412       .  A
C671        H675   1.083       .  S
C672        N676   1.438       .  S
N674        H677   1.046       .  S
N674        H678   1.043       .  S
N676        H679   1.046       .  S
N676        H680   1.044       .  S
C685        C686   1.418       .  A
C685        C690   1.408       .  A
C686        C687   1.406       .  A
C686        N691   1.438       .  S
C687        C688   1.400       .  A
C687        H692   1.084       .  S
C688        C693   1.489       .  S
C688        C689   1.411       .  A
C689        C690   1.410       .  A
C689        N694   1.438       .  S
C690        H695   1.083       .  S
N691        H711   1.045       .  S
N691        H712   1.046       .  S
C693        C696   1.401       .  A
C693        C700   1.413       .  A
N694        H709   1.046       .  S
N694        H710   1.046       .  S
C696        C697   1.406       .  A
C696        H701   1.084       .  S
C697        C698   1.415       .  A
C697        N702   1.438       .  S
C698        C699   1.403       .  A
C699        C700   1.410       .  A
C699        H703   1.080       .  S
C700        N704   1.437       .  S
N702        H705   1.045       .  S
N702        H706   1.046       .  S
N704        H707   1.046       .  S
N704        H708   1.045       .  S
C713        C714   1.416       .  A
C713        C718   1.407       .  A
C714        C715   1.405       .  A
C714        N719   1.438       .  S
C715        C716   1.398       .  A
C715        H720   1.084       .  S
C716        C721   1.484       .  S
C716        C717   1.411       .  A
C717        C718   1.411       .  A
C717        N722   1.438       .  S
C718        H723   1.084       .  S
N719        H739   1.046       .  S
N719        H740   1.045       .  S
C721        C724   1.403       .  A
C721        C728   1.408       .  A
N722        H737   1.045       .  S
N722        H738   1.045       .  S
C724        C725   1.411       .  A
C724        H729   1.084       .  S
C725        C726   1.415       .  A
C725        N730   1.437       .  S
C726        C727   1.407       .  A
C727        C728   1.406       .  A
C727        H731   1.084       .  S
C728        N732   1.438       .  S
N730        H733   1.046       .  S
N730        H734   1.045       .  S
N732        H735   1.046       .  S
N732        H736   1.044       .  S
C741        C742   1.414       .  A
C741        C746   1.404       .  A
C742        C743   1.407       .  A
C742        N747   1.438       .  S
C743        C744   1.403       .  A
C743        H748   1.084       .  S
C744        C749   1.488       .  S
C744        C745   1.411       .  A
C745        C746   1.409       .  A
C745        N750   1.437       .  S
C746        H751   1.084       .  S
N747        H767   1.046       .  S
N747        H768   1.046       .  S
C749        C752   1.405       .  A
C749        C756   1.409       .  A
N750        H765   1.046       .  S
N750        H766   1.045       .  S
C752        C753   1.411       .  A
C752        H757   1.084       .  S
C753        C754   1.414       .  A
C753        N758   1.438       .  S
C754        C755   1.405       .  A
C755        C756   1.405       .  A
C755        H759   1.084       .  S
C756        N760   1.438       .  S
N758        H761   1.045       .  S
N758        H762   1.046       .  S
N760        H763   1.046       .  S
N760        H764   1.045       .  S
C769        C770   1.418       .  A
C769        C774   1.407       .  A
C770        C771   1.409       .  A
C770        N775   1.438       .  S
C771        C772   1.402       .  A
C771        H776   1.084       .  S
C772        C777   1.494       .  S
C772        C773   1.411       .  A
C773        C774   1.411       .  A
C773        N778   1.437       .  S
C774        H779   1.083       .  S
N775        H795   1.046       .  S
N775        H796   1.045       .  S
C777        C780   1.403       .  A
C777        C784   1.412       .  A
N778        H793   1.046       .  S
N778        H794   1.046       .  S
C780        C781   1.409       .  A
C780        H785   1.084       .  S
C781        C782   1.417       .  A
C781        N786   1.438       .  S
C782        C783   1.407       .  A
C783        C784   1.411       .  A
C783        H787   1.083       .  S
C784        N788   1.437       .  S
N786        H789   1.046       .  S
N786        H790   1.046       .  S
N788        H791   1.046       .  S
N788        H792   1.045       .  S
C797        C798   1.413       .  A
C797        C802   1.406       .  A
C798        C799   1.405       .  A
C798        N803   1.437       .  S
C799        C800   1.400       .  A
C799        H804   1.084       .  S
C800        C805   1.473       .  S
C800        C801   1.407       .  A
C801        C802   1.404       .  A
C801        N806   1.438       .  S
C802        H807   1.084       .  S
N803        H823   1.046       .  S
N803        H824   1.046       .  S
C805        C808   1.398       .  A
C805        C812   1.408       .  A
N806        H821   1.046       .  S
N806        H822   1.045       .  S
C808        C809   1.402       .  A
C808        H813   1.084       .  S
C809        C810   1.412       .  A
C809        N814   1.437       .  S
C810        C811   1.404       .  A
C811        C812   1.406       .  A
C811        H815   1.084       .  S
C812        N816   1.438       .  S
N814        H817   1.045       .  S
N814        H818   1.044       .  S
N816        H819   1.045       .  S
N816        H820   1.045       .  S
C825        C826   1.412       .  A
C825        C830   1.405       .  A
C826        C827   1.407       .  A
C826        N831   1.438       .  S
C827        C828   1.404       .  A
C827        H832   1.084       .  S
C828        C833   1.489       .  S
C828        C829   1.411       .  A
C829        C830   1.408       .  A
C829        N834   1.438       .  S
C830        H835   1.084   1_554  S
N831        H851   1.046       .  S
N831        H852   1.045       .  S
C833        C836   1.404       .  A
C833        C840   1.410       .  A
N834        H849   1.046   1_554  S
N834        H850   1.046       .  S
C836        C837   1.409       .  A
C836        H841   1.084       .  S
C837        C838   1.415       .  A
C837        N842   1.438       .  S
C838        C839   1.406       .  A
C839        C840   1.405       .  A
C839        H843   1.083       .  S
C840        N844   1.438       .  S
N842        H845   1.046       .  S
N842        H846   1.045       .  S
N844        H847   1.046       .  S
N844        H848   1.046       .  S
C853        C854   1.418       .  A
C853        C858   1.409       .  A
C854        C855   1.405       .  A
C854        N859   1.438       .  S
C855        C856   1.400       .  A
C855        H860   1.084       .  S
C856       C1965   1.492       .  S
C856        C857   1.413       .  A
C857        C858   1.413       .  A
C857        N862   1.438       .  S
C858        H863   1.083       .  S
N859        H879   1.046       .  S
N859        H880   1.046       .  S
C861       C1960   1.484       .  S
C861        C864   1.400       .  A
C861       C1972   1.410       .  A
N862        H877   1.044       .  S
N862       H1982   1.046       .  S
C864        C865   1.405       .  A
C864        H869   1.084       .  S
C865        C866   1.417       .  A
C865        N870   1.438       .  S
C866        C867   1.405       .  A
C867       C1972   1.406       .  A
C867        H871   1.084       .  S
C868       C1965   1.414       .  A
C868       C1971   1.410       .  A
C868        N872   1.438       .  S
N870        H873   1.046       .  S
N870        H874   1.045       .  S
N872        H875   1.045       .  S
N872        H876   1.046       .  S
H878       N1966   1.045       .  S
C881        C882   1.412       .  A
C881        C886   1.403       .  A
C882        C883   1.404       .  A
C882        N887   1.438       .  S
C883        C884   1.400       .  A
C883        H888   1.084       .  S
C884        C889   1.478       .  S
C884        C885   1.410       .  A
C885        C886   1.407       .  A
C885        N890   1.438       .  S
C886        H891   1.084       .  S
N887        H907   1.046       .  S
N887        H908   1.045       .  S
C889        C892   1.402       .  A
C889        C896   1.408       .  A
N890        H905   1.045       .  S
N890        H906   1.044       .  S
C892        C893   1.407       .  A
C892        H897   1.084       .  S
C893        C894   1.414       .  A
C893        N898   1.437       .  S
C894        C895   1.407       .  A
C895        C896   1.405       .  A
C895        H899   1.084       .  S
C896        N900   1.439       .  S
N898        H901   1.046       .  S
N898        H902   1.045       .  S
N900        H903   1.046       .  S
N900        H904   1.043       .  S
C909        C910   1.416       .  A
C909        C914   1.405       .  A
C910        C911   1.407       .  A
C910        N915   1.438       .  S
C911        C912   1.404       .  A
C911        H916   1.083       .  S
C912        C917   1.494       .  S
C912        C913   1.414       .  A
C913        C914   1.408       .  A
C913        N918   1.438       .  S
C914        H919   1.083       .  S
N915        H935   1.045       .  S
N915        H936   1.046       .  S
C917        C920   1.405       .  A
C917        C924   1.414       .  A
N918        H933   1.045       .  S
N918        H934   1.046       .  S
C920        C921   1.407       .  A
C920        H925   1.083       .  S
C921        C922   1.415       .  A
C921        N926   1.438       .  S
C922        C923   1.404       .  A
C923        C924   1.408       .  A
C923        H927   1.084       .  S
C924        N928   1.438       .  S
N926        H929   1.046       .  S
N926        H930   1.045       .  S
N928        H931   1.046       .  S
N928        H932   1.046       .  S
C937        C938   1.418       .  A
C937        C942   1.404       .  A
C938        C939   1.404       .  A
C938        N943   1.438       .  S
C939        C940   1.402       .  A
C939        H944   1.084       .  S
C940        C945   1.491       .  S
C940        C941   1.413       .  A
C941        C942   1.407       .  A
C941        N946   1.437       .  S
C942        H947   1.082       .  S
N943        H963   1.046       .  S
N943        H964   1.046       .  S
C945        C948   1.404       .  A
C945        C952   1.415       .  A
N946        H961   1.043       .  S
N946        H962   1.045       .  S
C948        C949   1.403       .  A
C948        H953   1.083       .  S
C949        C950   1.411       .  A
C949        N954   1.438       .  S
C950        C951   1.401       .  A
C951        C952   1.406       .  A
C951        H955   1.084       .  S
C952        N956   1.438       .  S
N954        H957   1.046       .  S
N954        H958   1.045       .  S
N956        H959   1.046       .  S
N956        H960   1.046       .  S
C965        C966   1.416       .  A
C965        C970   1.406       .  A
C966        C967   1.410       .  A
C966        N971   1.438       .  S
C967        C968   1.404       .  A
C967        H972   1.084       .  S
C968        C973   1.479       .  S
C968        C969   1.405       .  A
C969        C970   1.400       .  A
C969        N974   1.438       .  S
C970        H975   1.083       .  S
N971        H991   1.045       .  S
N971        H992   1.046       .  S
C973        C976   1.403       .  A
C973        C980   1.408       .  A
N974        H989   1.045       .  S
N974        H990   1.046       .  S
C976        C977   1.407       .  A
C976        H981   1.084       .  S
C977        C978   1.410       .  A
C977        N982   1.438       .  S
C978        C979   1.404       .  A
C979        C980   1.404       .  A
C979        H983   1.084       .  S
C980        N984   1.438       .  S
N982        H985   1.045       .  S
N982        H986   1.046       .  S
N984        H987   1.046       .  S
N984        H988   1.046       .  S
C993        C994   1.417       .  A
C993        C998   1.407       .  A
C994        C995   1.406       .  A
C994        N999   1.438       .  S
C995        C996   1.399       .  A
C995       H1000   1.084       .  S
C996       C1001   1.482       .  S
C996        C997   1.409       .  A
C997        C998   1.410       .  A
C997       N1002   1.437       .  S
C998       H1003   1.083       .  S
N999       H1019   1.046       .  S
N999       H1020   1.045       .  S
C1001      C1004   1.402       .  A
C1001      C1008   1.408       .  A
N1002      H1017   1.045       .  S
N1002      H1018   1.046       .  S
C1004      C1005   1.409       .  A
C1004      H1009   1.084       .  S
C1005      C1006   1.415       .  A
C1005      N1010   1.438   1_455  S
C1006      C1007   1.405       .  A
C1007      C1008   1.406       .  A
C1007      H1011   1.084       .  S
C1008      N1012   1.438       .  S
N1010      H1013   1.045       .  S
N1010      H1014   1.046       .  S
N1012      H1015   1.046       .  S
N1012      H1016   1.045       .  S
C1021      C1022   1.416       .  A
C1021      C1026   1.408       .  A
C1022      C1023   1.411       .  A
C1022      N1027   1.437       .  S
C1023      C1024   1.403       .  A
C1023      H1028   1.084       .  S
C1024      C2133   1.482       .  S
C1024      C1025   1.406       .  A
C1025      C1026   1.404       .  A
C1025      N1030   1.438       .  S
C1026      H1031   1.083       .  S
N1027      H1047   1.045       .  S
N1027      H1048   1.046       .  S
C1029      C2128   1.481       .  S
C1029      C1032   1.400       .  A
C1029      C2140   1.410       .  A
N1030      H1045   1.046       .  S
N1030      H1046   1.046       .  S
C1032      C1033   1.405       .  A
C1032      H1037   1.084       .  S
C1033      C1034   1.413       .  A
C1033      N1038   1.438       .  S
C1034      C2139   1.405       .  A
C1035      C1036   1.408       .  A
C1035      C2138   1.404       .  A
C1035      H1039   1.084   1_455  S
C1036      C2133   1.409       .  A
C1036      N1040   1.437       .  S
N1038      H1041   1.046       .  S
N1038      H1042   1.046       .  S
N1040      H1043   1.046       .  S
N1040      H1044   1.045       .  S
C1049      C1050   1.412       .  A
C1049      C1054   1.404       .  A
C1050      C1051   1.411       .  A
C1050      N1055   1.438       .  S
C1051      C1052   1.405       .  A
C1051      H1056   1.082       .  S
C1052      C1057   1.488       .  S
C1052      C1053   1.410       .  A
C1053      C1054   1.402       .  A
C1053      N1058   1.438       .  S
C1054      H1059   1.084       .  S
N1055      H1075   1.045       .  S
N1055      H1076   1.045       .  S
C1057      C1060   1.402       .  A
C1057      C1064   1.410       .  A
N1058      H1073   1.045       .  S
N1058      H1074   1.046       .  S
C1060      C1061   1.405       .  A
C1060      H1065   1.084       .  S
C1061      C1062   1.416       .  A
C1061      N1066   1.438       .  S
C1062      C1063   1.410       .  A
C1063      C1064   1.410       .  A
C1063      H1067   1.084       .  S
C1064      N1068   1.438       .  S
N1066      H1069   1.046       .  S
N1066      H1070   1.045       .  S
N1068      H1071   1.046       .  S
N1068      H1072   1.045       .  S
C1077      C1078   1.418       .  A
C1077      C1082   1.406       .  A
C1078      C1079   1.408       .  A
C1078      N2187   1.438       .  S
C1079      C1080   1.403       .  A
C1079      H1084   1.083       .  S
C1080      C1085   1.497       .  S
C1080      C1081   1.414       .  A
C1081      C1082   1.410       .  A
C1081      N1086   1.438       .  S
C1082      H1087   1.083       .  S
N1083      C2182   1.438   1_554  S
N1083      H1103   1.046       .  S
N1083      H1104   1.046       .  S
C1085      C1088   1.404       .  A
C1085      C1092   1.415       .  A
N1086      H1101   1.046       .  S
N1086      H1102   1.046       .  S
C1088      C1089   1.408       .  A
C1088      H1093   1.084       .  S
C1089      C1090   1.415       .  A
C1089      N1094   1.438       .  S
C1090      C1091   1.404       .  A
C1091      C1092   1.411       .  A
C1091      H1095   1.083       .  S
C1092      N1096   1.438       .  S
N1094      H1097   1.046       .  S
N1094      H1098   1.046       .  S
N1096      H1099   1.045       .  S
N1096      H1100   1.045       .  S
In1105     O1107   2.242       .  S
In1105     O1108   2.255       .  S
In1105     O1116   2.238       .  S
In1105     O1113   2.266       .  S
In1105     O1114   2.232   1_655  S
In1105     O1117   2.240       .  S
C1106      O1114   1.262       .  A
C1106      C2138   1.482       .  S
O1107      C1115   1.262       .  A
O1108      C1115   1.265       .  A
C1109      O1110   1.264   1_554  A
C1109      C2181   1.494   1_554  S
C1111      O1113   1.263       .  A
C1111      O1117   1.260       .  A
C1111      C2153   1.479       .  S
C1115      C2110   1.489   1_655  S
In1118     O1120   2.231   1_655  S
In1118     O1121   2.259   1_655  S
In1118     O1129   2.233       .  S
In1118     O1123   2.272       .  S
In1118     O1125   2.264       .  S
In1118     O1126   2.272       .  S
In1118     O1127   2.232   1_655  S
In1118     O1130   2.230       .  S
C1119      O1125   1.266   1_455  A
C1119      O1127   1.260       .  A
C1119      C1985   1.482       .  S
O1120      C1128   1.264       .  A
O1121      C1128   1.266       .  A
C1122      O1129   1.259       .  A
C1122      O1123   1.265       .  A
C1122      C2054   1.482       .  S
C1124      O1126   1.262       .  A
C1124      O1130   1.257       .  A
C1124      C2082   1.481       .  S
C1128      C2013   1.485       .  S
In1131     O1133   2.233       .  S
In1131     O1134   2.261       .  S
In1131     O1142   2.238       .  S
In1131     O1136   2.262       .  S
In1131     O1138   2.256       .  S
In1131     O1139   2.258       .  S
In1131     O1140   2.237       .  S
In1131     O1143   2.236       .  S
C1132      O1138   1.264       .  A
C1132      O1140   1.261       .  A
C1132      C1942   1.482       .  S
O1133      C1141   1.261       .  A
O1134      C1141   1.266       .  A
C1135      O1142   1.260       .  A
C1135      O1136   1.264       .  A
C1135      C1970   1.486       .  S
C1137      O1139   1.265       .  A
C1137      O1143   1.261       .  A
C1137      C2069   1.490       .  S
C1141      C1901   1.488       .  S
In1144     O1146   2.234       .  S
In1144     O1147   2.245       .  S
In1144     O1155   2.226       .  S
In1144     O1149   2.270       .  S
In1144     O1151   2.270       .  S
In1144     O1152   2.255       .  S
In1144     O1153   2.234       .  S
In1144     O1156   2.245       .  S
C1145      O1151   1.267       .  A
C1145      O1153   1.261       .  A
C1145      C1845   1.490       .  S
O1146      C1154   1.263       .  A
O1147      C1154   1.265       .  A
C1148      O1155   1.259       .  A
C1148      O1149   1.267       .  A
C1148      C1886   1.485       .  S
C1150      O1152   1.264       .  A
C1150      O1156   1.261       .  A
C1150      C2194   1.487       .  S
C1154      C1830   1.486       .  S
In1157     O1159   2.229   1_545  S
In1157     O1160   2.256       .  S
In1157     O1168   2.247       .  S
In1157     O1162   2.250       .  S
In1157     O1164   2.259       .  S
In1157     O1165   2.265       .  S
In1157     O1166   2.217   1_545  S
In1157     O1169   2.218       .  S
C1158      O1164   1.266   1_565  A
C1158      O1166   1.261       .  A
C1158      C1761   1.477       .  S
O1159      C1167   1.261       .  A
O1160      C1167   1.266   1_545  A
C1161      O1168   1.262       .  A
C1161      O1162   1.263       .  A
C1161      C2166   1.490       .  S
C1163      O1165   1.265       .  A
C1163      O1169   1.259       .  A
C1163      C1802   1.479       .  S
C1167      C1746   1.482       .  S
In1170     O1172   2.211   1_545  S
In1170     O1181   2.222       .  S
In1170     O1175   2.255       .  S
In1170     O1177   2.259   1_545  S
In1170     O1179   2.233   1_545  S
In1170     O1182   2.247       .  S
C1171      O1177   1.267       .  A
C1171      O1179   1.261       .  A
C1171      C1677   1.483       .  S
O1172      C1180   1.259       .  A
C1174      O1181   1.261       .  A
C1174      O1175   1.268       .  A
C1174      C2041   1.488       .  S
C1176      O1178   1.264       .  A
C1176      C1705   1.481       .  S
C1180      C1662   1.480       .  S
In1183     O1185   2.247       .  S
In1183     O1186   2.270       .  S
In1183     O1194   2.237       .  S
In1183     O1188   2.254       .  S
In1183     O1190   2.253       .  S
In1183     O1191   2.244       .  S
In1183     O1192   2.235       .  S
In1183     O1195   2.239       .  S
C1184      O1190   1.264       .  A
C1184      O1192   1.261       .  A
C1184      C1593   1.478       .  S
O1185      C1193   1.258       .  A
O1186      C1193   1.263       .  A
C1187      O1194   1.259       .  A
C1187      O1188   1.262       .  A
C1187      C1718   1.476       .  S
C1189      O1191   1.266       .  A
C1189      O1195   1.263       .  A
C1189      C1873   1.487       .  S
C1193      C1621   1.488       .  S
In1196     O1198   2.237       .  S
In1196     O1199   2.254       .  S
In1196     O1207   2.237       .  S
In1196     O1201   2.268       .  S
In1196     O1203   2.257       .  S
In1196     O1204   2.266       .  S
In1196     O1205   2.245       .  S
In1196     O1208   2.241       .  S
C1197      O1203   1.265       .  A
C1197      O1205   1.263       .  A
C1197      C1578   1.489       .  S
O1198      C1206   1.261       .  A
O1199      C1206   1.265       .  A
C1200      O1207   1.258       .  A
C1200      O1201   1.264       .  A
C1200      C1957   1.488       .  S
C1202      O1204   1.263       .  A
C1202      O1208   1.259       .  A
C1202      C1789   1.492       .  S
C1206      C1550   1.479       .  S
In1209     O1211   2.238       .  S
In1209     O1212   2.265       .  S
In1209     O1220   2.244       .  S
In1209     O1214   2.262       .  S
In1209     O1216   2.256       .  S
In1209     O1217   2.266       .  S
In1209     O1218   2.236       .  S
In1209     O1221   2.235       .  S
C1210      O1216   1.265       .  A
C1210      O1218   1.261       .  A
C1210      C1606   1.483       .  S
O1211      C1219   1.259       .  A
O1212      C1219   1.263       .  A
C1213      O1220   1.261       .  A
C1213      O1214   1.262       .  A
C1213      C1481   1.491       .  S
C1215      O1217   1.264       .  A
C1215      O1221   1.260       .  A
C1215      C1522   1.490       .  S
C1219      C2097   1.480       .  S
In1222     O1224   2.232       .  S
In1222     O1225   2.253       .  S
In1222     O1233   2.212       .  S
In1222     O1227   2.251       .  S
In1222     O1229   2.239       .  S
In1222     O1230   2.265       .  S
In1222     O1231   2.224       .  S
In1222     O1234   2.221       .  S
C1223      O1229   1.266       .  A
C1223      O1231   1.263       .  A
C1223      C1998   1.478       .  S
O1224      C1232   1.263       .  A
O1225      C1232   1.268       .  A
C1226      O1233   1.259       .  A
C1226      O1227   1.265       .  A
C1226      C1453   1.472       .  S
C1228      O1230   1.267       .  A
C1228      O1234   1.259       .  A
C1228      C1438   1.489       .  S
C1232      C1537   1.486       .  S
In1235     O1237   2.204       .  S
In1235     O1238   2.256       .  S
In1235     O1246   2.243       .  S
In1235     O1240   2.252       .  S
In1235     O1242   2.250       .  S
In1235     O1243   2.259       .  S
In1235     O1244   2.245       .  S
In1235     O1247   2.217       .  S
C1236      O1242   1.265       .  A
C1236      O1244   1.260       .  A
C1236      C1914   1.480       .  S
O1237      C1245   1.261       .  A
O1238      C1245   1.268       .  A
C1239      O1246   1.262       .  A
C1239      O1240   1.265       .  A
C1239      C1410   1.484       .  S
C1241      O1243   1.266       .  A
C1241      O1247   1.259       .  A
C1241      C1466   1.486       .  S
C1245      C1774   1.481       .  S
In1248     O1250   2.228       .  S
In1248     O1251   2.261       .  S
In1248     O1259   2.246       .  S
In1248     O1253   2.258       .  S
In1248     O1255   2.256       .  S
In1248     O1256   2.267       .  S
In1248     O1257   2.232       .  S
In1248     O1260   2.228       .  S
C1249      O1255   1.267       .  A
C1249      O1257   1.261       .  A
C1249      C1690   1.486       .  S
O1250      C1258   1.260       .  A
O1251      C1258   1.265       .  A
C1252      O1259   1.262       .  A
C1252      O1253   1.266       .  A
C1252      C1509   1.491       .  S
C1254      O1256   1.265       .  A
C1254      O1260   1.260       .  A
C1254      C1369   1.492       .  S
C1258      C1817   1.479       .  S
In1261     O1263   2.234   1_565  S
In1261     O1264   2.266   1_565  S
In1261     O1272   2.246       .  S
In1261     O1266   2.264       .  S
In1261     O1268   2.264   1_565  S
In1261     O1269   2.265       .  S
In1261     O1270   2.233   1_565  S
In1261     O1273   2.224       .  S
C1262      O1268   1.266       .  A
C1262      O1270   1.261       .  A
C1262      C2026   1.486       .  S
O1263      C1271   1.261       .  A
O1264      C1271   1.265       .  A
C1265      O1272   1.260       .  A
C1265      O1266   1.263       .  A
C1265      C1382   1.486       .  S
C1267      O1269   1.265       .  A
C1267      O1273   1.259       .  A
C1267      C1354   1.485       .  S
C1271      C1634   1.488       .  S
In1274     O1276   2.240   1_565  S
In1274     O1277   2.269   1_554  S
In1274     O1285   2.229       .  S
In1274     O1282   2.255   1_554  S
In1274     O1283   2.227   1_564  S
In1274     O1286   2.253       .  S
C1275      O1283   1.260   1_554  A
C1275      C2125   1.488       .  S
O1276      C1284   1.261       .  A
O1277      C1284   1.265   1_566  A
C1278      O1279   1.265       .  A
C1278      C1397   1.480       .  S
C1280      O1282   1.265       .  A
C1280      O1286   1.262   1_556  A
C1280      C1326   1.485       .  S
C1284      C1565   1.493   1_554  S
In1287     O1289   2.239       .  S
In1287     O1290   2.252       .  S
In1287     O1298   2.216   1_655  S
In1287     O1294   2.255       .  S
In1287     O1295   2.243   1_655  S
In1287     O1296   2.232       .  S
In1287     O1299   2.242   1_655  S
C1288      O1294   1.266       .  A
C1288      O1296   1.261       .  A
C1288      C1649   1.486       .  S
O1289      C1297   1.263       .  A
O1290      C1297   1.266       .  A
C1291      O1298   1.260       .  A
C1293      O1295   1.265       .  A
C1293      O1299   1.261       .  A
C1293      C1341   1.484       .  S
C1297      C1929   1.485       .  S
In1300     O1302   2.239   1_455  S
In1300     O1303   2.266   1_455  S
In1300     O1311   2.258       .  S
In1300     O1305   2.269       .  S
In1300     O1307   2.260   1_455  S
In1300     O1308   2.266       .  S
In1300     O1309   2.245   1_455  S
In1300     O1312   2.239       .  S
C1301      O1307   1.265       .  A
C1301      O1309   1.262       .  A
C1301      C1858   1.492       .  S
O1302      C1310   1.259       .  A
O1303      C1310   1.263       .  A
C1304      O1311   1.259       .  A
C1304      O1305   1.261       .  A
C1304      C1313   1.487       .  S
C1306      O1308   1.264       .  A
C1306      O1312   1.262       .  A
C1306      C1494   1.492       .  S
C1310      C1733   1.490       .  S
C1313      C1314   1.413       .  A
C1313      C1318   1.405       .  A
C1314      C1315   1.409       .  A
C1314      N1319   1.438       .  S
C1315      C1316   1.403       .  A
C1315      H1320   1.084       .  S
C1316      C1321   1.488       .  S
C1316      C1317   1.412       .  A
C1317      C1318   1.410       .  A
C1317      N1322   1.438       .  S
C1318      H1323   1.084       .  S
N1319      H1339   1.046       .  S
N1319      H1340   1.046       .  S
C1321      C1324   1.403       .  A
C1321      C1328   1.411       .  A
N1322      H1337   1.046       .  S
N1322      H1338   1.043       .  S
C1324      C1325   1.408       .  A
C1324      H1329   1.084       .  S
C1325      C1326   1.411       .  A
C1325      N1330   1.438       .  S
C1326      C1327   1.406       .  A
C1327      C1328   1.411       .  A
C1327      H1331   1.084       .  S
C1328      N1332   1.438       .  S
N1330      H1333   1.045       .  S
N1330      H1334   1.046       .  S
N1332      H1335   1.046       .  S
N1332      H1336   1.043       .  S
C1341      C1342   1.416       .  A
C1341      C1346   1.404       .  A
C1342      C1343   1.408       .  A
C1342      N1347   1.438       .  S
C1343      C1344   1.403       .  A
C1343      H1348   1.084       .  S
C1344      C1349   1.486       .  S
C1344      C1345   1.414       .  A
C1345      C1346   1.398       .  A
C1345      N1350   1.433       .  S
C1346      H1351   1.084       .  S
N1347      H1367   1.046       .  S
N1347      H1368   1.046       .  S
C1349      C1352   1.400       .  A
C1349      C1356   1.411       .  A
N1350      H1365   1.043       .  S
N1350      H1366   1.046       .  S
C1352      C1353   1.403       .  A
C1352      H1357   1.084       .  S
C1353      C1354   1.416       .  A
C1353      N1358   1.439       .  S
C1354      C1355   1.406       .  A
C1355      C1356   1.410       .  A
C1355      H1359   1.082       .  S
C1356      N1360   1.437       .  S
N1358      H1361   1.046       .  S
N1358      H1362   1.046       .  S
N1360      H1363   1.044       .  S
N1360      H1364   1.045       .  S
C1369      C1370   1.418       .  A
C1369      C1374   1.407       .  A
C1370      C1371   1.406       .  A
C1370      N1375   1.438       .  S
C1371      C1372   1.401       .  A
C1371      H1376   1.084       .  S
C1372      C1377   1.489       .  S
C1372      C1373   1.410       .  A
C1373      C1374   1.409       .  A
C1373      N1378   1.437       .  S
C1374      H1379   1.079       .  S
N1375      H1395   1.046       .  S
N1375      H1396   1.046       .  S
C1377      C1380   1.403       .  A
C1377      C1384   1.411       .  A
N1378      H1393   1.045       .  S
N1378      H1394   1.046       .  S
C1380      C1381   1.408       .  A
C1380      H1385   1.084       .  S
C1381      C1382   1.415       .  A
C1381      N1386   1.438       .  S
C1382      C1383   1.405       .  A
C1383      C1384   1.408       .  A
C1383      H1387   1.084       .  S
C1384      N1388   1.438       .  S
N1386      H1389   1.045       .  S
N1386      H1390   1.046       .  S
N1388      H1391   1.046       .  S
N1388      H1392   1.046       .  S
C1397      C1398   1.413       .  A
C1397      C1402   1.405       .  A
C1398      C1399   1.405       .  A
C1398      N1403   1.438       .  S
C1399      C1400   1.401       .  A
C1399      H1404   1.084       .  S
C1400      C1405   1.484       .  S
C1400      C1401   1.412       .  A
C1401      C1402   1.409       .  A
C1401      N1406   1.438       .  S
C1402      H1407   1.084       .  S
N1403      H1424   1.045       .  S
C1405      C1408   1.403       .  A
C1405      C1412   1.410       .  A
N1406      H1421   1.046       .  S
N1406      H1422   1.042       .  S
C1408      C1409   1.407       .  A
C1408      H1413   1.084       .  S
C1409      C1410   1.412       .  A
C1409      N1414   1.438       .  S
C1410      C1411   1.406       .  A
C1411      C1412   1.409       .  A
C1411      H1415   1.083       .  S
C1412      N1416   1.439       .  S
N1414      H1417   1.046       .  S
N1414      H1418   1.045       .  S
N1416      H1419   1.046       .  S
N1416      H1420   1.043       .  S
C1425      C1426   1.416       .  A
C1425      C1430   1.405       .  A
C1426      C1427   1.401       .  A
C1427      C1428   1.401       .  A
C1427      H1432   1.083       .  S
C1428      C1433   1.491       .  S
C1428      C1429   1.415       .  A
C1429      C1430   1.409       .  A
C1429      N1434   1.438       .  S
C1430      H1435   1.084       .  S
N1431      H1451   1.045       .  S
N1431      H1452   1.046       .  S
C1433      C1436   1.401       .  A
C1433      C1440   1.415       .  A
N1434      H1449   1.045       .  S
N1434      H1450   1.045       .  S
C1436      C1437   1.405       .  A
C1436      H1441   1.083       .  S
C1437      C1438   1.419       .  A
C1437      N1442   1.438       .  S
C1438      C1439   1.404       .  A
C1439      C1440   1.407       .  A
C1439      H1443   1.083       .  S
C1440      N1444   1.438       .  S
N1442      H1445   1.046       .  S
N1442      H1446   1.046       .  S
N1444      H1447   1.046       .  S
N1444      H1448   1.045       .  S
C1453      C1454   1.412       .  A
C1453      C1458   1.402       .  A
C1454      C1455   1.402       .  A
C1454      N1459   1.439       .  S
C1455      C1456   1.402       .  A
C1455      H1460   1.084       .  S
C1456      C1461   1.486       .  S
C1456      C1457   1.414       .  A
C1457      C1458   1.406       .  A
C1457      N1462   1.438       .  S
C1458      H1463   1.084       .  S
N1459      H1479   1.045       .  S
N1459      H1480   1.046       .  S
C1461      C1464   1.400       .  A
C1461      C1468   1.411       .  A
N1462      H1477   1.045       .  S
N1462      H1478   1.046       .  S
C1464      C1465   1.403       .  A
C1464      H1469   1.084       .  S
C1465      C1466   1.418       .  A
C1465      N1470   1.438       .  S
C1466      C1467   1.405       .  A
C1467      C1468   1.406       .  A
C1467      H1471   1.082       .  S
C1468      N1472   1.438       .  S
N1470      H1473   1.046       .  S
N1470      H1474   1.046       .  S
N1472      H1475   1.043       .  S
N1472      H1476   1.045       .  S
C1481      C1482   1.416       .  A
C1481      C1486   1.406       .  A
C1482      C1483   1.410       .  A
C1482      N1487   1.438       .  S
C1483      C1484   1.406       .  A
C1483      H1488   1.084       .  S
C1484      C1489   1.493       .  S
C1484      C1485   1.410       .  A
C1485      C1486   1.406       .  A
C1485      N1490   1.438       .  S
C1486      H1491   1.083       .  S
N1487      H1507   1.045       .  S
N1487      H1508   1.046       .  S
C1489      C1492   1.406       .  A
C1489      C1496   1.410       .  A
N1490      H1505   1.046       .  S
N1490      H1506   1.046       .  S
C1492      C1493   1.411       .  A
C1492      H1497   1.084       .  S
C1493      C1494   1.417       .  A
C1493      N1498   1.438       .  S
C1494      C1495   1.407       .  A
C1495      C1496   1.405       .  A
C1495      H1499   1.083       .  S
C1496      N1500   1.438       .  S
N1498      H1501   1.046       .  S
N1498      H1502   1.045       .  S
N1500      H1503   1.046       .  S
N1500      H1504   1.046       .  S
C1509      C1510   1.417       .  A
C1509      C1514   1.405       .  A
C1510      C1511   1.409       .  A
C1510      N1515   1.438       .  S
C1511      C1512   1.404       .  A
C1511      H1516   1.084       .  S
C1513      N1518   1.438       .  S
C1514      H1519   1.083       .  S
N1515      H1535   1.046       .  S
N1515      H1536   1.046       .  S
C1517      C1520   1.402       .  A
C1517      C1524   1.412       .  A
N1518      H1533   1.046       .  S
N1518      H1534   1.046       .  S
C1520      C1521   1.406       .  A
C1520      H1525   1.084       .  S
C1521      C1522   1.417       .  A
C1521      N1526   1.438       .  S
C1522      C1523   1.407       .  A
C1523      C1524   1.410       .  A
C1523      H1527   1.083       .  S
N1526      H1529   1.046       .  S
N1526      H1530   1.046       .  S
N1528      H1531   1.045       .  S
N1528      H1532   1.045       .  S
C1537      C1538   1.414       .  A
C1537      C1542   1.407       .  A
C1538      C1539   1.409       .  A
C1538      N1543   1.437       .  S
C1539      C1540   1.401       .  A
C1539      H1544   1.084       .  S
C1540      C1545   1.481       .  S
C1540      C1541   1.408       .  A
C1541      C1542   1.406       .  A
C1541      N1546   1.438       .  S
C1542      H1547   1.084       .  S
N1543      H1563   1.046       .  S
N1543      H1564   1.046       .  S
C1545      C1548   1.401       .  A
C1545      C1552   1.410       .  A
N1546      H1561   1.046       .  S
N1546      H1562   1.045       .  S
C1548      C1549   1.406       .  A
C1548      H1553   1.084       .  S
C1549      C1550   1.413       .  A
C1549      N1554   1.437       .  S
C1550      C1551   1.404       .  A
C1551      C1552   1.408       .  A
C1551      H1555   1.084       .  S
C1552      N1556   1.438       .  S
N1554      H1557   1.045       .  S
N1554      H1558   1.044       .  S
N1556      H1559   1.045       .  S
N1556      H1560   1.045       .  S
C1565      C1566   1.416       .  A
C1565      C1570   1.408   1_556  A
C1566      C1567   1.412       .  A
C1566      N1571   1.437       .  S
C1567      C1568   1.403       .  A
C1567      H1572   1.084       .  S
C1568      C1573   1.487       .  S
C1568      C1569   1.409   1_556  A
C1569      C1570   1.407       .  A
C1569      N1574   1.439       .  S
C1570      H1575   1.083       .  S
N1571      H1591   1.045       .  S
N1571      H1592   1.046       .  S
C1573      C1576   1.401       .  A
C1573      C1580   1.411       .  A
N1574      H1589   1.046       .  S
N1574      H1590   1.043       .  S
C1576      C1577   1.407       .  A
C1576      H1581   1.084       .  S
C1577      C1578   1.416       .  A
C1577      N1582   1.437       .  S
C1578      C1579   1.406       .  A
C1579      C1580   1.410       .  A
C1579      H1583   1.083       .  S
C1580      N1584   1.438   1_556  S
N1582      H1585   1.046       .  S
N1582      H1586   1.044       .  S
N1584      H1588   1.043       .  S
C1593      C1594   1.412       .  A
C1593      C1598   1.400       .  A
C1594      C1595   1.407       .  A
C1594      N1599   1.438       .  S
C1595      C1596   1.406       .  A
C1595      H1600   1.083       .  S
C1596      C1601   1.495       .  S
C1596      C1597   1.417       .  A
C1597      C1598   1.405       .  A
C1597      N1602   1.438       .  S
C1598      H1603   1.084       .  S
N1599      H1619   1.046       .  S
N1599      H1620   1.046       .  S
C1601      C1604   1.405       .  A
C1601      C1608   1.416       .  A
N1602      H1617   1.046       .  S
N1602      H1618   1.046       .  S
C1604      C1605   1.405       .  A
C1604      H1609   1.083       .  S
C1605      C1606   1.413       .  A
C1605      N1610   1.438       .  S
C1606      C1607   1.403       .  A
C1607      C1608   1.408       .  A
C1607      H1611   1.084       .  S
C1608      N1612   1.438       .  S
N1610      H1613   1.046       .  S
N1610      H1614   1.046       .  S
N1612      H1615   1.046       .  S
N1612      H1616   1.045       .  S
C1621      C1622   1.415       .  A
C1621      C1626   1.406       .  A
C1622      C1623   1.411       .  A
C1622      N1627   1.437       .  S
C1623      C1624   1.403       .  A
C1623      H1628   1.084       .  S
C1624      C1629   1.486       .  S
C1624      C1625   1.408       .  A
C1625      C1626   1.407       .  A
C1625      N1630   1.438       .  S
C1626      H1631   1.084       .  S
N1627      H1647   1.045       .  S
N1627      H1648   1.046       .  S
C1629      C1632   1.399       .  A
C1629      C1636   1.410       .  A
N1630      H1645   1.046       .  S
N1630      H1646   1.045       .  S
C1632      C1633   1.406       .  A
C1632      H1637   1.084       .  S
C1633      C1634   1.416       .  A
C1633      N1638   1.438       .  S
C1634      C1635   1.406       .  A
C1635      C1636   1.411       .  A
C1635      H1639   1.083       .  S
C1636      N1640   1.437       .  S
N1638      H1641   1.045       .  S
N1638      H1642   1.046       .  S
N1640      H1643   1.045       .  S
N1640      H1644   1.046       .  S
C1649      C1650   1.413       .  A
C1649      C1654   1.407       .  A
C1650      C1651   1.409       .  A
C1651      C1652   1.403       .  A
C1652      C1657   1.485       .  S
C1652      C1653   1.410       .  A
C1653      C1654   1.407       .  A
C1653      N1658   1.439       .  S
C1654      H1659   1.084       .  S
N1655      H1676   1.045       .  S
C1657      C1664   1.410       .  A
N1658      H1673   1.046       .  S
N1658      H1674   1.044       .  S
C1660      C1661   1.403       .  A
C1660      H1665   1.084       .  S
C1661      C1662   1.416       .  A
C1661      N1666   1.438       .  S
C1663      C1664   1.408       .  A
C1663      H1667   1.084       .  S
C1664      N1668   1.438       .  S
N1666      H1669   1.046       .  S
N1666      H1670   1.046       .  S
N1668      H1671   1.046       .  S
N1668      H1672   1.043       .  S
C1677      C1678   1.413       .  A
C1677      C1682   1.404       .  A
C1678      C1679   1.406       .  A
C1678      N1683   1.438       .  S
C1679      C1680   1.405       .  A
C1679      H1684   1.084       .  S
C1680      C1685   1.494       .  S
C1680      C1681   1.414       .  A
C1681      C1682   1.409       .  A
C1681      N1686   1.438       .  S
C1682      H1687   1.084       .  S
N1683      H1703   1.046       .  S
N1683      H1704   1.046       .  S
C1685      C1688   1.404       .  A
C1685      C1692   1.414       .  A
N1686      H1701   1.046       .  S
N1686      H1702   1.046       .  S
C1688      C1689   1.407       .  A
C1688      H1693   1.084       .  S
C1689      C1690   1.416       .  A
C1689      N1694   1.438       .  S
C1690      C1691   1.403       .  A
C1691      C1692   1.407       .  A
C1691      H1695   1.084       .  S
C1692      N1696   1.438       .  S
N1694      H1697   1.045       .  S
N1694      H1698   1.046       .  S
N1696      H1700   1.046       .  S
C1705      C1706   1.414       .  A
C1705      C1710   1.404       .  A
C1706      C1707   1.409       .  A
C1706      N1711   1.437       .  S
C1707      C1708   1.401       .  A
C1707      H1712   1.084       .  S
C1708      C1713   1.480       .  S
C1708      C1709   1.408       .  A
C1709      C1710   1.404       .  A
C1709      N1714   1.438       .  S
N1711      H1731   1.044       .  S
N1711      H1732   1.046       .  S
C1713      C1716   1.402       .  A
C1713      C1720   1.409       .  A
N1714      H1730   1.045       .  S
C1716      C1717   1.407       .  A
C1716      H1721   1.084       .  S
C1717      C1718   1.411       .  A
C1717      N1722   1.437       .  S
C1718      C1719   1.404       .  A
C1719      C1720   1.406       .  A
C1719      H1723   1.084       .  S
C1720      N1724   1.438       .  S
N1722      H1725   1.045       .  S
N1722      H1726   1.045       .  S
N1724      H1727   1.046       .  S
N1724      H1728   1.045       .  S
C1733      C1734   1.417       .  A
C1733      C1738   1.409       .  A
C1734      C1735   1.409       .  A
C1734      N1739   1.437       .  S
C1735      C1736   1.401       .  A
C1735      H1740   1.084       .  S
C1736      C1741   1.481       .  S
C1736      C1737   1.406       .  A
C1737      C1738   1.405       .  A
C1737      N1742   1.438       .  S
C1738      H1743   1.083       .  S
N1739      H1759   1.046       .  S
N1739      H1760   1.046       .  S
C1741      C1744   1.400       .  A
C1741      C1748   1.409       .  A
N1742      H1757   1.046       .  S
N1742      H1758   1.045       .  S
C1744      C1745   1.406       .  A
C1744      H1749   1.084       .  S
C1745      C1746   1.415       .  A
C1745      N1750   1.438       .  S
C1746      C1747   1.404       .  A
C1747      C1748   1.408       .  A
C1747      H1751   1.084       .  S
C1748      N1752   1.437       .  S
N1750      H1753   1.046       .  S
N1750      H1754   1.046       .  S
N1752      H1755   1.046       .  S
N1752      H1756   1.045       .  S
C1761      C1762   1.413       .  A
C1761      C1766   1.403       .  A
C1762      C1763   1.409       .  A
C1762      N1767   1.437   1_565  S
C1763      C1764   1.403       .  A
C1763      H1768   1.084       .  S
C1764      C1769   1.475       .  S
C1764      C1765   1.406       .  A
C1765      C1766   1.401       .  A
C1765      N1770   1.438       .  S
C1766      H1771   1.084       .  S
N1767      H1787   1.045       .  S
N1767      H1788   1.046       .  S
C1769      C1772   1.396       .  A
C1769      C1776   1.410       .  A
N1770      H1785   1.046       .  S
N1770      H1786   1.044       .  S
C1772      C1773   1.400       .  A
C1772      H1777   1.084       .  S
C1773      C1774   1.416       .  A
C1773      N1778   1.438       .  S
C1774      C1775   1.406       .  A
C1775      C1776   1.409       .  A
C1775      H1779   1.084       .  S
C1776      N1780   1.438       .  S
N1778      H1781   1.046       .  S
N1778      H1782   1.045       .  S
N1780      H1783   1.045       .  S
N1780      H1784   1.045       .  S
C1789      C1790   1.419       .  A
C1789      C1794   1.407       .  A
C1790      C1791   1.407       .  A
C1790      N1795   1.438       .  S
C1791      C1792   1.401       .  A
C1791      H1796   1.084       .  S
C1792      C1797   1.487       .  S
C1792      C1793   1.410       .  A
C1793      C1794   1.408       .  A
C1793      N1798   1.438       .  S
C1794      H1799   1.083       .  S
N1795      H1815   1.045       .  S
N1795      H1816   1.046       .  S
C1797      C1800   1.401       .  A
C1797      C1804   1.413       .  A
N1798      H1813   1.046       .  S
N1798      H1814   1.046       .  S
C1800      C1801   1.404       .  A
C1800      H1805   1.084       .  S
C1801      C1802   1.414       .  A
C1801      N1806   1.439       .  S
C1802      C1803   1.402       .  A
C1803      C1804   1.408       .  A
C1803      H1807   1.081       .  S
C1804      N1808   1.437       .  S
N1806      H1809   1.045       .  S
N1806      H1810   1.046       .  S
N1808      H1811   1.046       .  S
N1808      H1812   1.046       .  S
C1817      C1818   1.414       .  A
C1817      C1822   1.405       .  A
C1818      C1819   1.403       .  A
C1818      N1823   1.438       .  S
C1819      C1820   1.399       .  A
C1819      H1824   1.084       .  S
C1820      C1825   1.478       .  S
C1820      C1821   1.409       .  A
C1821      C1822   1.409       .  A
C1821      N1826   1.437       .  S
C1822      H1827   1.084       .  S
N1823      H1843   1.046       .  S
N1823      H1844   1.045       .  S
C1825      C1828   1.400       .  A
C1825      C1832   1.406       .  A
N1826      H1841   1.045       .  S
N1826      H1842   1.046       .  S
C1828      C1829   1.408       .  A
C1828      H1833   1.084       .  S
C1829      C1830   1.417       .  A
C1829      N1834   1.437       .  S
C1830      C1831   1.407       .  A
C1831      C1832   1.404       .  A
C1831      H1835   1.083       .  S
C1832      N1836   1.438       .  S
N1834      H1837   1.046       .  S
N1834      H1838   1.046       .  S
N1836      H1839   1.046       .  S
N1836      H1840   1.045       .  S
C1845      C1846   1.417       .  A
C1845      C1850   1.407       .  A
C1846      C1847   1.407       .  A
C1846      N1851   1.438       .  S
C1847      C1848   1.399       .  A
C1847      H1852   1.084       .  S
C1848      C1853   1.486       .  S
C1848      C1849   1.411       .  A
C1849      C1850   1.412       .  A
C1849      N1854   1.438       .  S
C1850      H1855   1.083       .  S
N1851      H1871   1.046       .  S
N1851      H1872   1.046       .  S
C1853      C1856   1.402       .  A
C1853      C1860   1.408       .  A
N1854      H1869   1.046       .  S
N1854      H1870   1.045       .  S
C1856      C1857   1.411       .  A
C1856      H1861   1.084       .  S
C1857      C1858   1.416       .  A
C1857      N1862   1.437       .  S
C1858      C1859   1.408       .  A
C1859      C1860   1.408       .  A
C1859      H1863   1.083       .  S
C1860      N1864   1.438       .  S
N1862      H1865   1.045       .  S
N1862      H1866   1.046       .  S
N1864      H1867   1.046       .  S
N1864      H1868   1.045       .  S
C1873      C1874   1.413       .  A
C1873      C1878   1.405       .  A
C1874      C1875   1.405       .  A
C1874      N1879   1.432       .  S
C1875      C1876   1.403       .  A
C1875      H1880   1.084       .  S
C1876      C1881   1.490       .  S
C1876      C1877   1.413       .  A
C1877      C1878   1.407       .  A
C1877      N1882   1.438       .  S
C1878      H1883   1.083       .  S
N1879      H1899   1.046       .  S
N1879      H1900   1.046       .  S
C1881      C1884   1.402       .  A
C1881      C1888   1.413       .  A
N1882      H1897   1.046       .  S
N1882      H1898   1.045       .  S
C1884      C1885   1.405       .  A
C1884      H1889   1.084       .  S
C1885      C1886   1.416       .  A
C1885      N1890   1.439       .  S
C1886      C1887   1.404       .  A
C1887      C1888   1.409       .  A
C1887      H1891   1.083       .  S
C1888      N1892   1.437       .  S
N1890      H1893   1.046       .  S
N1890      H1894   1.046       .  S
N1892      H1895   1.046       .  S
N1892      H1896   1.045       .  S
C1901      C1902   1.415       .  A
C1901      C1906   1.407       .  A
C1902      C1903   1.409       .  A
C1902      N1907   1.437       .  S
C1903      C1904   1.402       .  A
C1903      H1908   1.084       .  S
C1904      C1909   1.482       .  S
C1904      C1905   1.408       .  A
C1905      C1906   1.406       .  A
C1905      N1910   1.439       .  S
C1906      H1911   1.083       .  S
N1907      H1927   1.046       .  S
N1907      H1928   1.046       .  S
C1909      C1912   1.402       .  A
C1909      C1916   1.410       .  A
N1910      H1925   1.046       .  S
N1910      H1926   1.043       .  S
C1912      C1913   1.408       .  A
C1912      H1917   1.084       .  S
C1913      C1914   1.414       .  A
C1913      N1918   1.438       .  S
C1914      C1915   1.403       .  A
C1915      C1916   1.406       .  A
C1915      H1919   1.084       .  S
C1916      N1920   1.438       .  S
N1918      H1921   1.046       .  S
N1918      H1922   1.045       .  S
N1920      H1923   1.046       .  S
N1920      H1924   1.044       .  S
C1929      C1930   1.412       .  A
C1929      C1934   1.406       .  A
C1930      C1931   1.407       .  A
C1930      N1935   1.438       .  S
C1931      C1932   1.404       .  A
C1931      H1936   1.084       .  S
C1932      C1937   1.490       .  S
C1932      C1933   1.411       .  A
C1933      C1934   1.407       .  A
C1933      N1938   1.438       .  S
C1934      H1939   1.084       .  S
N1935      H1955   1.046       .  S
N1935      H1956   1.046       .  S
C1937      C1940   1.405       .  A
C1937      C1944   1.411       .  A
N1938      H1953   1.046       .  S
N1938      H1954   1.046       .  S
C1940      C1941   1.409       .  A
C1940      H1945   1.084       .  S
C1941      C1942   1.413       .  A
C1941      N1946   1.438       .  S
C1942      C1943   1.404       .  A
C1943      C1944   1.404       .  A
C1943      H1947   1.084       .  S
C1944      N1948   1.438       .  S
N1946      H1949   1.046       .  S
N1946      H1950   1.046       .  S
N1948      H1951   1.046       .  S
N1948      H1952   1.046       .  S
C1957      C1958   1.417       .  A
C1957      C1962   1.407   1_556  A
C1958      C1959   1.404       .  A
C1958      N1963   1.438       .  S
C1959      C1960   1.400   1_556  A
C1959      H1964   1.084       .  S
C1960      C1961   1.409       .  A
C1961      C1962   1.409       .  A
C1961      N1966   1.437       .  S
C1962      H1967   1.083       .  S
N1963      H1983   1.046       .  S
N1963      H1984   1.046       .  S
C1965      C1968   1.403       .  A
N1966      H1981   1.043       .  S
C1968      C1969   1.405       .  A
C1968      H1973   1.084       .  S
C1969      C1970   1.412       .  A
C1969      N1974   1.432       .  S
C1970      C1971   1.405       .  A
C1971      H1975   1.084       .  S
C1972      N1976   1.438       .  S
N1974      H1977   1.046       .  S
N1974      H1978   1.045       .  S
N1976      H1979   1.046       .  S
N1976      H1980   1.046       .  S
C1985      C1986   1.415       .  A
C1985      C1990   1.405       .  A
C1986      C1987   1.405       .  A
C1986      N1991   1.438       .  S
C1987      C1988   1.399       .  A
C1987      H1992   1.084       .  S
C1988      C1993   1.478       .  S
C1988      C1989   1.409       .  A
C1989      C1990   1.408       .  A
C1989      N1994   1.438       .  S
C1990      H1995   1.083       .  S
N1991      H2011   1.046       .  S
N1991      H2012   1.045       .  S
C1993      C1996   1.402       .  A
C1993      C2000   1.408       .  A
N1994      H2009   1.045       .  S
N1994      H2010   1.045       .  S
C1996      C1997   1.407       .  A
C1996      H2001   1.084       .  S
C1997      C1998   1.412       .  A
C1997      N2002   1.438       .  S
C1998      C1999   1.405       .  A
C1999      C2000   1.404       .  A
C1999      H2003   1.084       .  S
C2000      N2004   1.438       .  S
N2002      H2005   1.046       .  S
N2002      H2006   1.046       .  S
N2004      H2007   1.046       .  S
N2004      H2008   1.044       .  S
C2013      C2014   1.413       .  A
C2013      C2018   1.405       .  A
C2014      C2015   1.403       .  A
C2014      N2019   1.435       .  S
C2015      C2016   1.400       .  A
C2015      H2020   1.084       .  S
C2016      C2021   1.489       .  S
C2016      C2017   1.413       .  A
C2017      C2018   1.411       .  A
C2017      N2022   1.438       .  S
C2018      H2023   1.084       .  S
N2019      H2039   1.044   1_455  S
N2019      H2040   1.046       .  S
C2021      C2024   1.402       .  A
C2021      C2028   1.412       .  A
N2022      H2037   1.046       .  S
N2022      H2038   1.046       .  S
C2024      C2025   1.407       .  A
C2024      H2029   1.084       .  S
C2025      C2026   1.416       .  A
C2025      N2030   1.438       .  S
C2026      C2027   1.404       .  A
C2027      C2028   1.408       .  A
C2027      H2031   1.083       .  S
C2028      N2032   1.438       .  S
N2030      H2033   1.046       .  S
N2030      H2034   1.046       .  S
N2032      H2035   1.045       .  S
N2032      H2036   1.045       .  S
C2041      C2042   1.417       .  A
C2041      C2046   1.405       .  A
C2042      C2043   1.405       .  A
C2042      N2047   1.438       .  S
C2043      C2044   1.402       .  A
C2043      H2048   1.084       .  S
C2044      C2049   1.492       .  S
C2044      C2045   1.414       .  A
C2045      C2046   1.407       .  A
C2045      N2050   1.438       .  S
C2046      H2051   1.083       .  S
N2047      H2067   1.046       .  S
N2047      H2068   1.046       .  S
C2049      C2052   1.402       .  A
C2049      C2056   1.416       .  A
N2050      H2065   1.045       .  S
N2050      H2066   1.046       .  S
C2052      C2053   1.404       .  A
C2052      H2057   1.083       .  S
C2053      C2054   1.412       .  A
C2053      N2058   1.435       .  S
C2054      C2055   1.403       .  A
C2055      C2056   1.410       .  A
C2055      H2059   1.084       .  S
C2056      N2060   1.438       .  S
N2058      H2061   1.046       .  S
N2058      H2062   1.044       .  S
N2060      H2063   1.046       .  S
N2060      H2064   1.046       .  S
C2069      C2070   1.415       .  A
C2069      C2074   1.408       .  A
C2070      C2071   1.408       .  A
C2070      N2075   1.438       .  S
C2071      C2072   1.404       .  A
C2071      H2076   1.084       .  S
C2072      C2077   1.488       .  S
C2072      C2073   1.409       .  A
C2073      C2074   1.406       .  A
C2073      N2078   1.438       .  S
C2074      H2079   1.083       .  S
N2075      H2095   1.046       .  S
N2075      H2096   1.045       .  S
C2077      C2080   1.406       .  A
C2077      C2084   1.410       .  A
N2078      H2093   1.046       .  S
N2078      H2094   1.046       .  S
C2080      C2081   1.410       .  A
C2080      H2085   1.083       .  S
C2081      C2082   1.412       .  A
C2081      N2086   1.437       .  S
C2082      C2083   1.403       .  A
C2083      C2084   1.403       .  A
C2083      H2087   1.084       .  S
C2084      N2088   1.438       .  S
N2086      H2089   1.044       .  S
N2086      H2090   1.046       .  S
N2088      H2091   1.045       .  S
N2088      H2092   1.046       .  S
C2097      C2098   1.412       .  A
C2097      C2102   1.404       .  A
C2098      C2099   1.406       .  A
C2098      N2103   1.438       .  S
C2099      C2100   1.401       .  A
C2099      H2104   1.084       .  S
C2100      C2105   1.482       .  S
C2100      C2101   1.410       .  A
C2101      C2102   1.409       .  A
C2101      N2106   1.437       .  S
C2102      H2107   1.084       .  S
N2103      H2123   1.046       .  S
N2103      H2124   1.045       .  S
C2105      C2108   1.401       .  A
C2105      C2112   1.407       .  A
N2106      H2121   1.045       .  S
N2106      H2122   1.046       .  S
C2108      C2109   1.410       .  A
C2108      H2113   1.084       .  S
C2109      C2110   1.416       .  A
C2109      N2114   1.437       .  S
C2110      C2111   1.408       .  A
C2111      C2112   1.406       .  A
C2111      H2115   1.083       .  S
C2112      N2116   1.438       .  S
N2114      H2117   1.046       .  S
N2114      H2118   1.046   1_455  S
N2116      H2119   1.046       .  S
N2116      H2120   1.045       .  S
C2125      C2126   1.415       .  A
C2125      C2130   1.407       .  A
C2126      C2127   1.411       .  A
C2126      N2131   1.437       .  S
C2127      C2128   1.403       .  A
C2127      H2132   1.084       .  S
C2128      C2129   1.406       .  A
C2129      C2130   1.403       .  A
C2129      N2134   1.438   1_554  S
C2130      H2135   1.084   1_554  S
N2131      H2151   1.045       .  S
N2131      H2152   1.046       .  S
C2133      C2136   1.401       .  A
N2134      H2149   1.045       .  S
N2134      H2150   1.046       .  S
C2136      C2137   1.407       .  A
C2136      H2141   1.084       .  S
C2137      C2138   1.414       .  A
C2137      N2142   1.438       .  S
C2139      C2140   1.409       .  A
C2139      H2143   1.084   1_455  S
C2140      N2144   1.437       .  S
N2142      H2145   1.046       .  S
N2142      H2146   1.046       .  S
N2144      H2147   1.046   1_554  S
N2144      H2148   1.045   1_554  S
C2153      C2154   1.411       .  A
C2153      C2158   1.403       .  A
C2154      C2155   1.412       .  A
C2154      N2159   1.438       .  S
C2155      C2156   1.404       .  A
C2155      H2160   1.083       .  S
C2156      C2161   1.484       .  S
C2156      C2157   1.408       .  A
C2157      C2158   1.404       .  A
C2157      N2162   1.438       .  S
C2158      H2163   1.084       .  S
N2159      H2179   1.045       .  S
N2159      H2180   1.045       .  S
C2161      C2164   1.401       .  A
C2161      C2168   1.408       .  A
N2162      H2177   1.045       .  S
N2162      H2178   1.046       .  S
C2164      C2165   1.406       .  A
C2164      H2169   1.084       .  S
C2165      C2166   1.416       .  A
C2165      N2170   1.438       .  S
C2166      C2167   1.409       .  A
C2167      C2168   1.409       .  A
C2167      H2171   1.083       .  S
C2168      N2172   1.438       .  S
N2170      H2173   1.046       .  S
N2170      H2174   1.046       .  S
N2172      H2175   1.046       .  S
N2172      H2176   1.046       .  S
C2181      C2182   1.418       .  A
C2181      C2186   1.408       .  A
C2182      C2183   1.407       .  A
C2183      C2184   1.402       .  A
C2183      H2188   1.084       .  S
C2184      C2189   1.492       .  S
C2184      C2185   1.411       .  A
C2185      C2186   1.410       .  A
C2185      N2190   1.437       .  S
C2186      H2191   1.083       .  S
N2187      H2207   1.046       .  S
N2187      H2208   1.046       .  S
C2189      C2192   1.404       .  A
C2189      C2196   1.411       .  A
N2190      H2205   1.046       .  S
N2190      H2206   1.046       .  S
C2192      C2193   1.408       .  A
C2192      H2197   1.084       .  S
C2193      C2194   1.415       .  A
C2193      N2198   1.438       .  S
C2194      C2195   1.405       .  A
C2195      C2196   1.408       .  A
C2195      H2199   1.084       .  S
C2196      N2200   1.437       .  S
N2198      H2201   1.046       .  S
N2198      H2202   1.046       .  S
N2200      H2203   1.046       .  S
N2200      H2204   1.046       .  S
