geometry optimzed in LAMMPS
_audit_creation_date              2020-11-30 
_audit_creation_method            'lammps2cif' 
_symmetry_space_group_name_H-M    'P1' 
_symmetry_Int_Tables_number       1 
_symmetry_cell_setting            triclinic 
loop_ 
_symmetry_equiv_pos_as_xyz 
  x,y,z 
_cell_length_a                    34.99884782 
_cell_length_b                    35.24759836496382 
_cell_length_c                    35.82833549208026 
_cell_angle_alpha                 90.03720358222736 
_cell_angle_beta                  90.36727554545325 
_cell_angle_gamma                 89.66515156932672 
loop_ 
_atom_site_label 
_atom_site_type_symbol 
_atom_site_fract_x 
_atom_site_fract_y 
_atom_site_fract_z 
_atom_site_charge 
N1          N  0.87948191  0.38334155  0.48163383    -0.01900
C2          C  0.83926774  0.38475181  0.96924054     0.00700
C3          C  0.82132044  0.35272160  0.98239891    -0.22200
C4          C  0.84925939  0.32620839  0.98860633    -0.22400
C5          C  0.88345927  0.34286862  0.97910357     0.00600
H6          H  0.79102420  0.34919211  0.98709818     0.14400
H7          H  0.84505650  0.29737348  0.99804640     0.14400
N8          N  0.87019203  0.37024306  0.28826091    -0.01900
C9          C  0.83569830  0.37983057  0.30322401     0.00700
C10         C  0.82337865  0.35196356  0.32730515    -0.22200
C11         C  0.85067437  0.32408239  0.32725427    -0.22400
C12         C  0.87917897  0.33568328  0.30329437     0.00600
H13         H  0.79616385  0.35083061  0.34143697     0.14400
H14         H  0.84861438  0.29701321  0.34131364     0.14400
N15         N  0.56817322  0.88080311  0.53148907    -0.01900
C16         C  0.60384907  0.88577557  0.54613464     0.00700
C17         C  0.61455568  0.85461979  0.56721608    -0.22200
C18         C  0.58518457  0.82924795  0.56496955    -0.22400
C19         C  0.55726216  0.84554126  0.54264866     0.00600
H20         H  0.64225451  0.84933838  0.57984659     0.14400
H21         H  0.58576969  0.80040741  0.57534204     0.14400
N22         N  0.57842137  0.87489504  0.19772031    -0.01900
C23         C  0.61634865  0.88177232  0.20273020     0.00700
C24         C  0.63723253  0.84846505  0.20212100    -0.22200
C25         C  0.61172635  0.81983740  0.19649039    -0.22400
C26         C  0.57600215  0.83651861  0.19374704     0.00600
H27         H  0.66789070  0.84546932  0.20519958     0.14400
H28         H  0.61836111  0.78983457  0.19514006     0.14400
O29         O  0.88242266  0.94957495  0.45713309    -0.76900
C30         C  0.97267377  0.97579583  0.37252949     0.84100
O31         O  0.00053232  0.88433886  0.49221167    -0.78000
O32         O  0.06112730  0.00109601  0.45623052    -0.79500
O33         O  0.94629226  0.06350645  0.50058317    -0.79300
O34         O  0.88162559  0.99308899  0.50214451    -0.78000
Zn35       Zn  0.93926087  0.94260700  0.44444815     1.55700
O36         O  0.99002606  0.06674072  0.45594119    -0.79300
Cd37       Cd  0.94365528  0.00757834  0.00708384     1.59700
Cd38       Cd  0.01120043  0.94309408  0.00987339     1.59600
O39         O  0.95460483  0.00001927  0.06356458    -0.79300
O40         O  0.97182883  0.97416958  0.47657751    -1.89800
Cd41       Cd  0.00339330  0.00963279  0.44592946     1.59900
O42         O  0.99621647  0.95172315  0.06486145    -0.79300
O43         O  0.99506286  0.99813646  0.38995687    -0.78000
C44         C  0.97803245  0.86797978  0.46913472     0.84600
C45         C  0.86414041  0.97015682  0.48050396     0.84200
O46         O  0.94914361  0.95448036  0.38960959    -0.76900
C47         C  0.96697113  0.08292406  0.47849092     0.85100
O48         O  0.95323994  0.88686741  0.45050636    -0.77000
C49         C  0.97506977  0.97597404  0.08136858     0.85200
C50         C  0.08065966  0.97878550  0.47701300     0.85500
O51         O  0.06458871  0.95472695  0.49832303    -0.79400
O52         O  0.95379927  0.88478948  0.24866088    -0.76900
C53         C  0.97460426  0.97462500  0.33149381     0.84100
O54         O  0.88600664  0.99858690  0.20440087    -0.78000
O55         O  0.99948277  0.06413460  0.25198364    -0.79500
O56         O  0.06623086  0.95271161  0.20181832    -0.79300
O57         O  0.99769251  0.88427722  0.20402349    -0.78000
Zn58       Zn  0.94354044  0.94153658  0.25827872     1.55700
O59         O  0.06845337  0.99502898  0.24815732    -0.79300
Cd60       Cd  0.00827302  0.94140651  0.19467331     1.59700
Cd61       Cd  0.94360608  0.00884891  0.19598098     1.59600
O62         O  0.99573265  0.95200620  0.13940277    -0.79300
O63         O  0.97608245  0.97411821  0.22768159    -1.89800
Cd64       Cd  0.01069192  0.00615591  0.25953073     1.59900
O65         O  0.95415906  0.00028987  0.13957942    -0.79300
O66         O  0.99914611  0.99539836  0.31519079    -0.78000
C67         C  0.86895373  0.97500374  0.22538719     0.84600
C68         C  0.97546881  0.86671628  0.22612726     0.84200
O69         O  0.95197584  0.95303418  0.31334249    -0.76900
C70         C  0.08506381  0.97416797  0.22388462     0.85100
O71         O  0.88770433  0.95232713  0.24649329    -0.77000
C72         C  0.97481537  0.97614140  0.12232273     0.85200
C73         C  0.97529327  0.08252242  0.23204100     0.85500
O74         O  0.95288175  0.06543343  0.20947584    -0.79400
N75         N  0.07133547  0.57878724  0.40251413    -0.01900
C76         C  0.10491365  0.56861204  0.38630324     0.00700
C77         C  0.11506053  0.59466702  0.35939725    -0.22200
C78         C  0.08721660  0.62205636  0.35906510    -0.22400
C79         C  0.06082661  0.61207449  0.38589025     0.00600
H80         H  0.14166059  0.59564377  0.34419706     0.14400
H81         H  0.08829481  0.64840569  0.34362226     0.14400
N82         N  0.06472492  0.56739305  0.21840898    -0.01900
C83         C  0.10010460  0.55905953  0.20473014     0.00700
C84         C  0.11342705  0.58811946  0.18273073    -0.22200
C85         C  0.08583172  0.61566512  0.18269630    -0.22400
C86         C  0.05639253  0.60269511  0.20469462     0.00600
H87         H  0.14131714  0.58999806  0.16999657     0.14400
H88         H  0.08804491  0.64344640  0.17005364     0.14400
N89         N  0.37422562  0.08108799  0.46529477    -0.01900
C90         C  0.33780961  0.07238855  0.45511098     0.00700
C91         C  0.32080014  0.10241779  0.43651224    -0.22200
C92         C  0.34740722  0.13063944  0.43490246    -0.22400
C93         C  0.37983305  0.11692953  0.45254166     0.00600
H94         H  0.29157219  0.10408785  0.42655401     0.14400
H95         H  0.34305929  0.15883787  0.42365093     0.14400
N96         N  0.37443038  0.07568675  0.17332807    -0.01900
C97         C  0.33760948  0.06522179  0.16671207     0.00700
C98         C  0.31843875  0.09304855  0.14691707    -0.22200
C99         C  0.34382617  0.12176318  0.14120412    -0.22400
C100        C  0.37799419  0.11076790  0.15768659     0.00600
H101        H  0.28825637  0.09372954  0.14014130     0.14400
H102        H  0.33695129  0.14915908  0.12923784     0.14400
O103        O  0.45104340  0.45881028  0.38400254    -0.76900
C104        C  0.46775167  0.37705988  0.47211122     0.84100
O105        O  0.38124445  0.51096413  0.48726476    -0.78000
O106        O  0.49678425  0.45162267  0.05823289    -0.79500
O107        O  0.56402124  0.50273520  0.44598676    -0.79300
O108        O  0.49343282  0.50574641  0.38139738    -0.78000
Zn109      Zn  0.43890598  0.45195933  0.43836229     1.55700
O110        O  0.56259615  0.45902056  0.49077935    -0.79300
Cd111      Cd  0.50595872  0.51567307  0.43744689     1.59700
Cd112      Cd  0.43856043  0.50531169  0.00234596     1.59600
O113        O  0.49782563  0.57297974  0.45018105    -0.79300
O114        O  0.47188654  0.48350908  0.46935572    -1.89800
Cd115      Cd  0.50543613  0.43939708  0.00229557     1.59900
O116        O  0.45253313  0.57378883  0.49376563    -0.79300
O117        O  0.49264886  0.39287916  0.49299406    -0.78000
C118        C  0.36429208  0.48954279  0.46375265     0.84600
C119        C  0.47195280  0.48134834  0.36548000     0.84200
O120        O  0.44591455  0.39664048  0.45088332    -0.76900
C121        C  0.58122861  0.48002011  0.46831954     0.85100
O122        O  0.38298305  0.46570469  0.44416874    -0.77000
C123        C  0.47629821  0.59096521  0.47292210     0.85200
C124        C  0.47332963  0.47321508  0.07532604     0.85500
O125        O  0.44932665  0.49431452  0.05810545    -0.79400
O126        O  0.49129272  0.50229961  0.30597387    -0.76900
C127        C  0.58019457  0.47087329  0.22917193     0.84100
O128        O  0.45139308  0.56497232  0.19441733    -0.78000
O129        O  0.49863009  0.45396280  0.13383234    -0.79500
O130        O  0.44950189  0.38421555  0.24102598    -0.79300
O131        O  0.45141398  0.45316770  0.30874071    -0.78000
Zn132      Zn  0.50457298  0.50841529  0.25178865     1.55700
O133        O  0.49422093  0.38503278  0.19714022    -0.79300
Cd134      Cd  0.43980482  0.44180567  0.25285900     1.59700
Cd135      Cd  0.43913495  0.50733922  0.18841980     1.59600
O136        O  0.38169119  0.45340203  0.24391429    -0.79300
O137        O  0.47283687  0.47517502  0.22117260    -1.89800
Cd138      Cd  0.50696503  0.44214371  0.19007051     1.59900
O139        O  0.38161765  0.49813744  0.20000765    -0.79300
O140        O  0.56406494  0.44930897  0.20522611    -0.78000
C141        C  0.47602938  0.58204117  0.21467849     0.84600
C142        C  0.47141369  0.47886115  0.32454318     0.84200
O143        O  0.56080599  0.49475706  0.24804979    -0.76900
C144        C  0.47124306  0.36686629  0.21798900     0.85100
O145        O  0.49765627  0.56362373  0.23711718    -0.77000
C146        C  0.36377449  0.47627296  0.22229148     0.85200
C147        C  0.47371095  0.47377467  0.11629819     0.85500
O148        O  0.44886774  0.49404996  0.13306644    -0.79400
C149        C  0.43916905  0.26411275  0.22939057    -0.26700
C150        C  0.45735178  0.24614768  0.19919406     0.07000
C151        C  0.48323336  0.26740313  0.17783530     0.26600
C152        C  0.48880161  0.30607736  0.18515993    -0.11100
C153        C  0.46883154  0.32466707  0.21397883    -0.25100
C154        C  0.44493245  0.30273693  0.23692383     0.37400
C155        C  0.44548291  0.20715789  0.18747571     0.07000
F156        F  0.50254126  0.25100828  0.14924472    -0.18900
H157        H  0.50791695  0.32175557  0.16729221     0.16800
F158        F  0.42602910  0.31872441  0.26596222    -0.22600
H159        H  0.41886069  0.24870534  0.24618776     0.18600
C160        C  0.43986870  0.17771734  0.21353931     0.26600
C161        C  0.42169793  0.14388866  0.20275369    -0.11100
C162        C  0.40840457  0.13902094  0.16597878    -0.25100
C163        C  0.41680747  0.16720531  0.13948402     0.37500
C164        C  0.43514956  0.20065218  0.15008484    -0.26800
F165        F  0.45028357  0.18234077  0.24979379    -0.18900
H166        H  0.41519543  0.12296043  0.22384955     0.16800
F167        F  0.40425027  0.16397570  0.10381603    -0.22600
H168        H  0.43856386  0.22271000  0.12938127     0.18600
C169        C  0.43067762  0.19574102  0.50019257    -0.26700
C170        C  0.44691374  0.21365628  0.46907768     0.07000
C171        C  0.45012100  0.19316005  0.43548697     0.26600
C172        C  0.43236602  0.15796326  0.43161333    -0.11100
C173        C  0.41207752  0.14220485  0.46136677    -0.25100
C174        C  0.41332715  0.16015306  0.49637952     0.37400
C175        C  0.45414229  0.25521753  0.46974669     0.07000
F176        F  0.46739273  0.20874103  0.40538130    -0.18900
H177        H  0.43131697  0.14473967  0.40431871     0.16800
F178        F  0.46136341  0.12961134  0.06573319    -0.22600
H179        H  0.48430676  0.19639653  0.04410729     0.18600
C180        C  0.43682116  0.27869423  0.44266570     0.26600
C181        C  0.44181490  0.31788482  0.44368051    -0.11100
C182        C  0.46378701  0.33503069  0.47190111    -0.25100
C183        C  0.48070590  0.31166346  0.49950157     0.37500
C184        C  0.47574630  0.27212882  0.49840194    -0.26800
F185        F  0.41363342  0.26391363  0.41590462    -0.18900
H186        H  0.42801187  0.33489857  0.42227278     0.16800
F187        F  0.50123385  0.32692732  0.52799236    -0.22600
H188        H  0.48868048  0.25469361  0.51999187     0.18600
C189        C  0.25961394  0.46712279  0.25322013    -0.26700
C190        C  0.24016707  0.48509001  0.22363045     0.07000
C191        C  0.26155320  0.49915845  0.19357324     0.26600
C192        C  0.30134382  0.49560423  0.19327758    -0.11100
C193        C  0.32110471  0.47788098  0.22283218    -0.25100
C194        C  0.29964261  0.46314107  0.25274837     0.37400
C195        C  0.19826961  0.49273238  0.22506831     0.07000
F196        F  0.24408995  0.51812514  0.16517840    -0.18900
H197        H  0.31678664  0.50729157  0.16987341     0.16800
F198        F  0.31728645  0.44602691  0.28213335    -0.22600
H199        H  0.24379212  0.45652104  0.27688542     0.18600
C200        C  0.17471785  0.48420167  0.19422287     0.26600
C201        C  0.13918760  0.50218822  0.18996746    -0.11100
C202        C  0.12611031  0.52810169  0.21681829    -0.25100
C203        C  0.14733104  0.53272130  0.24991898     0.37500
C204        C  0.18318873  0.51508782  0.25402002    -0.26800
F205        F  0.18765689  0.46130201  0.16651240    -0.18900
H206        H  0.12357077  0.49868058  0.16399716     0.16800
F207        F  0.13592223  0.55851379  0.27573475    -0.22600
H208        H  0.20074673  0.52204597  0.27805204     0.18600
C209        C  0.19266794  0.50709305  0.39107521    -0.26700
C210        C  0.20293534  0.51075143  0.42893413     0.07000
C211        C  0.17582420  0.52628523  0.45374457     0.26600
C212        C  0.14130450  0.54147422  0.44018707    -0.11100
C213        C  0.13303629  0.54110092  0.40182365    -0.25100
C214        C  0.15791424  0.52161398  0.37776117     0.37400
C215        C  0.24309933  0.50253991  0.44117545     0.07000
F216        F  0.18023394  0.51262350  0.00193591    -0.18900
H217        H  0.12262304  0.54629554  0.96977796     0.16800
F218        F  0.14979762  0.51899479  0.34080253    -0.22600
H219        H  0.21260349  0.49538692  0.37109955     0.18600
C220        C  0.26356680  0.47093687  0.42754744     0.26600
C221        C  0.30256265  0.46646510  0.43573045    -0.11100
C222        C  0.32213814  0.49303885  0.45802151    -0.25100
C223        C  0.30128876  0.52382070  0.47283747     0.37500
C224        C  0.26249008  0.52857464  0.46417671    -0.26800
F225        F  0.24601309  0.44436107  0.40614784    -0.18900
H226        H  0.31756872  0.44225795  0.42414282     0.16800
F227        F  0.31845261  0.53420468  0.00573297    -0.22600
H228        H  0.24799254  0.55370411  0.47438872     0.18600
C229        C  0.18365961  0.98247180  0.18116343    -0.26700
C230        C  0.20745028  0.98594069  0.21281692     0.07000
C231        C  0.19067191  0.98265969  0.24839439     0.26600
C232        C  0.15097839  0.97825368  0.25194701    -0.11100
C233        C  0.12730440  0.97590517  0.22021477    -0.25100
C234        C  0.14422962  0.97711150  0.18472467     0.37400
C235        C  0.24812217  0.99806305  0.20808980     0.07000
F236        F  0.21253392  0.98414492  0.27978071    -0.18900
H237        H  0.13866500  0.97685641  0.27956091     0.16800
F238        F  0.12233333  0.97570242  0.15334167    -0.22600
H239        H  0.19523210  0.98586732  0.15343075     0.18600
C240        C  0.27086965  0.98393728  0.17869310     0.26600
C241        C  0.30414250  0.00306519  0.16796521    -0.11100
C242        C  0.31574662  0.03593680  0.18684950    -0.25100
C243        C  0.29580342  0.04715030  0.21898177     0.37500
C244        C  0.26227426  0.02855687  0.22932396    -0.26800
F245        F  0.25960822  0.95318300  0.15873919    -0.18900
H246        H  0.31903459  0.99402731  0.14307585     0.16800
F247        F  0.30595577  0.07922617  0.23747031    -0.22600
H248        H  0.24557969  0.04046825  0.25183568     0.18600
C249        C  0.96833607  0.76266349  0.25547920    -0.26700
C250        C  0.98323098  0.74402914  0.22397754     0.07000
C251        C  0.99242930  0.76581922  0.19243121     0.26600
C252        C  0.98880072  0.80537787  0.19320625    -0.11100
C253        C  0.97540444  0.82434482  0.22516952    -0.25100
C254        C  0.96397166  0.80236199  0.25600414     0.37400
C255        C  0.99336237  0.70284812  0.22514097     0.07000
F256        F  0.00719337  0.74908695  0.16153365    -0.18900
H257        H  0.99731797  0.82131827  0.16882287     0.16800
F258        F  0.95033394  0.81921481  0.28731031    -0.22600
H259        H  0.96094395  0.74647392  0.28006959     0.18600
C260        C  0.01960840  0.68926989  0.25195522     0.26600
C261        C  0.03610388  0.65316332  0.24812319    -0.11100
C262        C  0.02687072  0.62986920  0.21755763    -0.25100
C263        C  0.99839067  0.64217037  0.19243855     0.37500
C264        C  0.98166679  0.67826183  0.19633777    -0.26800
F265        F  0.03268261  0.71252708  0.27935569    -0.18900
H266        H  0.05909800  0.64497637  0.26691865     0.16800
F267        F  0.98971590  0.62091329  0.16197501    -0.22600
H268        H  0.96149991  0.68805951  0.17535155     0.18600
C269        C  0.18880459  0.96483701  0.02090999    -0.26700
C270        C  0.20350268  0.99117521  0.47333710     0.07000
C271        C  0.18002247  0.00334214  0.44354594     0.26600
C272        C  0.14048267  0.99845089  0.44487509    -0.11100
C273        C  0.12311482  0.98119708  0.47573656    -0.25100
C274        C  0.14967966  0.95943216  0.01419277     0.37400
C275        C  0.24483737  0.00124515  0.47387091     0.07000
F276        F  0.19499245  0.02193924  0.41391153    -0.18900
H277        H  0.12329360  0.00886025  0.42174952     0.16800
F278        F  0.13283409  0.92807245  0.02844517    -0.22600
H279        H  0.20450683  0.94417900  0.03744298     0.18600
C280        C  0.26028095  0.02231089  0.50374160     0.26600
C281        C  0.29531073  0.04085769  0.49973279    -0.11100
C282        C  0.31525857  0.03898823  0.46593774    -0.25100
C283        C  0.30208490  0.01447093  0.43780442     0.37500
C284        C  0.26731112  0.99550759  0.44192024    -0.26800
F285        F  0.23674610  0.00223703  0.08107179    -0.18900
H286        H  0.30442443  0.06045259  0.52131432     0.16800
F287        F  0.32046809  0.01256141  0.40459673    -0.22600
H288        H  0.25637466  0.97889816  0.41878434     0.18600
C289        C  0.96185420  0.76780007  0.43176433    -0.26700
C290        C  0.99526543  0.74897905  0.44371035     0.07000
C291        C  0.02169436  0.76910197  0.46588863     0.26600
C292        C  0.01493111  0.80707060  0.47538604    -0.11100
C293        C  0.98212097  0.82634061  0.46248901    -0.25100
C294        C  0.95525197  0.80596966  0.44093745     0.37400
C295        C  0.00420363  0.70982578  0.43023918     0.07000
F296        F  0.05537039  0.75294942  0.47642446    -0.18900
H297        H  0.03642332  0.82188351  0.49157726     0.16800
F298        F  0.92287066  0.82297263  0.42806542    -0.22600
H299        H  0.94105432  0.75304783  0.41466441     0.18600
C300        C  0.01920746  0.68193680  0.45445860     0.26600
C301        C  0.03459764  0.64818992  0.44016222    -0.11100
C302        C  0.03420756  0.64089464  0.40163917    -0.25100
C303        C  0.01567103  0.66707560  0.37785089     0.37500
C304        C  0.00105288  0.70121727  0.39201395    -0.26800
F305        F  0.02062581  0.68801395  0.49184775    -0.18900
H306        H  0.04969964  0.62946116  0.45902484     0.16800
F307        F  0.01414999  0.66085898  0.34048231    -0.23000
H308        H  0.98938302  0.72192770  0.37268153     0.18600
C309        C  0.43668034  0.99960847  0.21632038    -0.26700
C310        C  0.46194089  0.99141289  0.18687505     0.07000
C311        C  0.45916611  0.01316467  0.15402028     0.26600
C312        C  0.43131822  0.04168243  0.15049289    -0.11100
C313        C  0.40550115  0.04919440  0.17950676    -0.25100
C314        C  0.40863781  0.02812794  0.21266163     0.37400
C315        C  0.49111233  0.96041114  0.19044440     0.07000
F316        F  0.48378510  0.00723322  0.12548803    -0.18900
H317        H  0.42923082  0.05746437  0.12463055     0.16800
F318        F  0.38467211  0.03520887  0.24145602    -0.22600
H319        H  0.43822650  0.98341117  0.24195423     0.18600
C320        C  0.51625083  0.95892118  0.22123968     0.26600
C321        C  0.54433309  0.93047370  0.22369959    -0.11100
C322        C  0.54795849  0.90275155  0.19573939    -0.25100
C323        C  0.52251680  0.90378819  0.16519731     0.37500
C324        C  0.49449060  0.93236640  0.16260105    -0.26800
F325        F  0.51452116  0.98572564  0.24839346    -0.18900
H326        H  0.56337070  0.93009388  0.24755713     0.16800
F327        F  0.52564163  0.87802063  0.13722049    -0.22600
H328        H  0.47541267  0.93264212  0.13872607     0.18600
C329        C  0.51850473  0.75398576  0.16309003    -0.26700
C330        C  0.50147125  0.74379786  0.19697360     0.07000
C331        C  0.50108035  0.77037709  0.22639781     0.26600
C332        C  0.52079999  0.80476699  0.22312133    -0.11100
C333        C  0.54151366  0.81278265  0.19072043    -0.25100
C334        C  0.53870682  0.78795451  0.16012076     0.37400
C335        C  0.49100377  0.70345978  0.20342217     0.07000
F336        F  0.48433888  0.76168754  0.25934765    -0.18900
H337        H  0.52343425  0.82301780  0.24731981     0.16800
F338        F  0.55994784  0.79417082  0.12920052    -0.22600
H339        H  0.51961182  0.73393624  0.14019521     0.18600
C340        C  0.46694650  0.68362462  0.17870816     0.26600
C341        C  0.46135798  0.64444817  0.18305294    -0.11100
C342        C  0.48013932  0.62409675  0.21172317    -0.25100
C343        C  0.50385004  0.64430710  0.23667158     0.37500
C344        C  0.50895596  0.68340310  0.23255073    -0.26800
F345        F  0.44916425  0.70206671  0.15018224    -0.18900
H346        H  0.44298193  0.62988689  0.16334511     0.16800
F347        F  0.52284041  0.62635619  0.26476265    -0.22600
H348        H  0.52830610  0.69786678  0.25144108     0.18600
C349        C  0.68182045  0.95113537  0.24535607    -0.26700
C350        C  0.70428932  0.95957205  0.21407201     0.07000
C351        C  0.68933713  0.95198297  0.17823647     0.26600
C352        C  0.65510018  0.93191652  0.17434888    -0.11100
C353        C  0.63580030  0.91860293  0.20592147    -0.25100
C354        C  0.64817641  0.93029898  0.24143075     0.37400
C355        C  0.74574400  0.96737423  0.21945666     0.07000
F356        F  0.71020808  0.95897639  0.14722401    -0.18900
H357        H  0.64652961  0.92231547  0.14681510     0.16800
F358        F  0.63113283  0.91665327  0.27254421    -0.22600
H359        H  0.69254028  0.95695334  0.27320095     0.18600
C360        C  0.76507312  0.99549280  0.19925657     0.26600
C361        C  0.80499014  0.99841376  0.20188003    -0.11100
C362        C  0.82640525  0.97348841  0.22474919    -0.25100
C363        C  0.80665848  0.94644171  0.24605703     0.37500
C364        C  0.76701464  0.94348881  0.24325069    -0.26800
F365        F  0.74548598  0.02002190  0.17696913    -0.18900
H366        H  0.81917741  0.01990926  0.18550649     0.16800
F367        F  0.82553632  0.92191155  0.26891900    -0.22600
H368        H  0.75298590  0.92127549  0.25883890     0.18600
C369        C  0.51026909  0.97105062  0.53786193    -0.26700
C370        C  0.48668689  0.96848525  0.50617994     0.07000
C371        C  0.49081420  0.93696597  0.48237253     0.26600
C372        C  0.51802202  0.90864361  0.49020459    -0.11100
C373        C  0.54193848  0.91123353  0.52170927    -0.25100
C374        C  0.53764144  0.94286016  0.54558796     0.37400
C375        C  0.45855202  0.99906071  0.49731684     0.07000
F376        F  0.46786409  0.93320771  0.45192903    -0.18900
H377        H  0.52030968  0.88470572  0.47147290     0.16800
F378        F  0.57458451  0.92025740  0.08085554    -0.22600
H379        H  0.52120677  0.97072167  0.07130374     0.18600
C380        C  0.42808735  0.00778345  0.52146432     0.26600
C381        C  0.40056634  0.03514529  0.51124065    -0.11100
C382        C  0.40352518  0.05474953  0.47728896    -0.25100
C383        C  0.43466837  0.04684854  0.45384569     0.37500
C384        C  0.46166689  0.01914577  0.46369457    -0.26800
F385        F  0.42426832  0.98895881  0.55424661    -0.18900
H386        H  0.37683683  0.04096994  0.52970408     0.16800
F387        F  0.43807297  0.06491178  0.42061706    -0.22600
H388        H  0.48501566  0.01306080  0.44481380     0.18600
C389        C  0.51783660  0.77513360  0.47473406    -0.26700
C390        C  0.49573669  0.75247086  0.49851643     0.07000
C391        C  0.49453356  0.75244906  0.03367673     0.26600
C392        C  0.50314686  0.80048364  0.54706001    -0.11100
C393        C  0.52827524  0.82110164  0.52447301    -0.25100
C394        C  0.53439139  0.80877922  0.48763860     0.37400
C395        C  0.48851585  0.71199087  0.48842066     0.07000
F396        F  0.47789859  0.73054514  0.06006221    -0.18900
H397        H  0.51368620  0.79259313  0.07454686     0.16800
F398        F  0.56044030  0.82634390  0.46579889    -0.22600
H399        H  0.52503735  0.76506865  0.44707088     0.18600
C400        C  0.45288339  0.69452002  0.49387289     0.26600
C401        C  0.44877335  0.65530427  0.48812014    -0.11100
C402        C  0.47982955  0.63288935  0.47617013    -0.25100
C403        C  0.51492194  0.65073735  0.46924715     0.37500
C404        C  0.51912304  0.68964206  0.47548835    -0.26800
F405        F  0.42207758  0.71527031  0.50464209    -0.18900
H406        H  0.42127337  0.64238817  0.49317876     0.16800
F407        F  0.54592411  0.63028946  0.45844057    -0.22600
H408        H  0.54703449  0.70210872  0.47152410     0.18600
C409        C  0.67562293  0.93285859  0.48358602    -0.26700
C410        C  0.70326327  0.94441903  0.50987296     0.07000
C411        C  0.69389962  0.94330254  0.54802323     0.26600
C412        C  0.65910567  0.92793076  0.55953693    -0.11100
C413        C  0.63275761  0.91359106  0.53341541    -0.25100
C414        C  0.64060289  0.91769564  0.49516073     0.37400
C415        C  0.74299566  0.95366217  0.49804913     0.07000
F416        F  0.73458380  0.92839928  0.06810997    -0.18900
H417        H  0.67016198  0.89646547  0.08215608     0.16800
F418        F  0.61634724  0.90339973  0.46908137    -0.22600
H419        H  0.68199353  0.93377310  0.45405257     0.18600
C420        C  0.76433452  0.92784003  0.47641528     0.26600
C421        C  0.80317124  0.93421321  0.46940700    -0.11100
C422        C  0.82177726  0.96635037  0.48388456    -0.25100
C423        C  0.79982451  0.99317758  0.50389411     0.37500
C424        C  0.76101341  0.98672088  0.51094220    -0.26800
F425        F  0.74828893  0.89518472  0.46398284    -0.18900
H426        H  0.81908465  0.91302463  0.45394701     0.16800
F427        F  0.81588333  0.02546681  0.51722174    -0.22600
H428        H  0.74511438  0.00729361  0.52720363     0.18600
C429        C  0.93359805  0.43407466  0.23150832    -0.26700
C430        C  0.95197984  0.45528420  0.25969682     0.07000
C431        C  0.94256370  0.44769659  0.29706957     0.26600
C432        C  0.91602787  0.41959143  0.30590434    -0.11100
C433        C  0.89819251  0.39817417  0.27781348    -0.25100
C434        C  0.90725526  0.40562731  0.24037748     0.37400
C435        C  0.98150570  0.48430743  0.25003406     0.07000
F436        F  0.95968262  0.46679644  0.32522575    -0.18900
H437        H  0.90929650  0.41431986  0.33490205     0.16800
F438        F  0.89082843  0.38569902  0.21228180    -0.22600
H439        H  0.93946484  0.43964116  0.20240012     0.18600
C440        C  0.00925493  0.47646458  0.22280941     0.26600
C441        C  0.03627850  0.50373445  0.21319914    -0.11100
C442        C  0.03745960  0.53933003  0.23096843    -0.25100
C443        C  0.01054777  0.54691578  0.25910999     0.37500
C444        C  0.98266031  0.51988058  0.26811727    -0.26800
F445        F  0.01083278  0.44209082  0.20577380    -0.18900
H446        H  0.05615754  0.49707046  0.19109717     0.16800
F447        F  0.01153923  0.57987466  0.27854369    -0.22600
H448        H  0.96172335  0.52700571  0.28915622     0.18600
C449        C  0.94381131  0.24966713  0.30372074    -0.26700
C450        C  0.94683758  0.24167372  0.26539982     0.07000
C451        C  0.93396776  0.26942986  0.23978720     0.26600
C452        C  0.91516036  0.30232672  0.25232553    -0.11100
C453        C  0.90947372  0.30873693  0.29057428    -0.25100
C454        C  0.92574183  0.28283197  0.31616981     0.37400
C455        C  0.95849900  0.20271520  0.25288519     0.07000
F456        F  0.93779064  0.26390379  0.20250322    -0.18900
H457        H  0.90226756  0.32095754  0.23191997     0.16800
F458        F  0.92154627  0.28807870  0.35342781    -0.22600
H459        H  0.95299701  0.22900735  0.32429029     0.18600
C460        C  0.98867725  0.18263789  0.27031041     0.26600
C461        C  0.99504226  0.14411352  0.26228351    -0.11100
C462        C  0.97174560  0.12461678  0.23652911    -0.25100
C463        C  0.94309334  0.14540574  0.21745348     0.37500
C464        C  0.93648786  0.18368944  0.22583144    -0.26800
F465        F  0.01169672  0.20003007  0.29560830    -0.18900
H466        H  0.01766068  0.12927265  0.27713549     0.16800
F467        F  0.92013566  0.12852710  0.19175903    -0.22600
H468        H  0.91267152  0.19793538  0.21228061     0.18600
C469        C  0.76648461  0.43260422  0.24107930    -0.26700
C470        C  0.74064745  0.44710824  0.26753268     0.07000
C471        C  0.75168066  0.44655836  0.30548035     0.26600
C472        C  0.78590994  0.42881164  0.31649318    -0.11100
C473        C  0.80936525  0.41044675  0.29026285    -0.25100
C474        C  0.79992931  0.41373118  0.25224100     0.37400
C475        C  0.70046975  0.45624690  0.25571911     0.07000
F476        F  0.72771049  0.45919225  0.33242331    -0.18900
H477        H  0.79228640  0.42622032  0.34600790     0.16800
F478        F  0.81977038  0.39421698  0.22616017    -0.22600
H479        H  0.75914587  0.43292507  0.21167198     0.18600
C480        C  0.67959060  0.48708864  0.27043781     0.26600
C481        C  0.64085148  0.49217557  0.26108773    -0.11100
C482        C  0.62212657  0.46716949  0.23637694    -0.25100
C483        C  0.64354894  0.43741481  0.22044865     0.37500
C484        C  0.68187934  0.43196768  0.23030805    -0.26800
F485        F  0.69650316  0.51259733  0.29351461    -0.18900
H486        H  0.62540614  0.51565341  0.27353307     0.16800
F487        F  0.62733207  0.41257951  0.19619521    -0.22600
H488        H  0.69675492  0.40767824  0.21872821     0.18600
C489        C  0.00302055  0.49740442  0.40179871    -0.26700
C490        C  0.99086215  0.49578305  0.43896411     0.07000
C491        C  0.00681208  0.52160131  0.46480252     0.26600
C492        C  0.03364441  0.54867054  0.45314363    -0.11100
C493        C  0.04429426  0.55102078  0.41548652    -0.25100
C494        C  0.02878471  0.52493209  0.38996990     0.37400
C495        C  0.96196951  0.46679254  0.45002384     0.07000
F496        F  0.98313705  0.52124953  0.99701254    -0.18900
H497        H  0.03645966  0.56812168  0.97706086     0.16800
F498        F  0.03889431  0.52604385  0.35347557    -0.22600
H499        H  0.99283501  0.47672767  0.38192126     0.18600
C500        C  0.92849007  0.46121489  0.42856544     0.26600
C501        C  0.90212353  0.43314720  0.43835527    -0.11100
C502        C  0.90823931  0.41009311  0.46979241    -0.25100
C503        C  0.93614192  0.41407920  0.98418106     0.37500
C504        C  0.96325678  0.44208652  0.97685095    -0.26800
F505        F  0.92071282  0.48357875  0.39860375    -0.18900
H506        H  0.87679811  0.42948212  0.42131674     0.16800
F507        F  0.93824224  0.39476535  0.01686412    -0.22600
H508        H  0.98596411  0.44685472  0.99696525     0.18600
C509        C  0.98142266  0.18861186  0.45726124    -0.26700
C510        C  0.95511642  0.20565557  0.48162156     0.07000
C511        C  0.93275988  0.18213300  0.50438846     0.26600
C512        C  0.93706640  0.14267598  0.50322940    -0.11100
C513        C  0.96360790  0.12530262  0.47922575    -0.25100
C514        C  0.98591169  0.14890802  0.45616342     0.37400
C515        C  0.94934890  0.24764195  0.48264032     0.07000
F516        F  0.90445541  0.19746163  0.01268863    -0.18900
H517        H  0.91911413  0.12566285  0.52108388     0.16800
F518        F  0.01203316  0.13381429  0.43249940    -0.22600
H519        H  0.99870125  0.20612443  0.43922516     0.18600
C520        C  0.94845749  0.26610261  0.00859926     0.26600
C521        C  0.93087312  0.30172803  0.01016283    -0.11100
C522        C  0.91813912  0.32162740  0.48846349    -0.25100
C523        C  0.92178607  0.30417421  0.45334834     0.37500
C524        C  0.93729869  0.26737244  0.45048371    -0.26800
F525        F  0.95694603  0.24786629  0.04099668    -0.18900
H526        H  0.92262651  0.31301053  0.03708962     0.16800
F527        F  0.90547577  0.32043378  0.42280208    -0.22600
H528        H  0.93655447  0.25301484  0.42375952     0.18600
C529        C  0.76853504  0.45851881  0.99144964    -0.26700
C530        C  0.74694934  0.46102261  0.46999986     0.07000
C531        C  0.76399679  0.44243976  0.43948425     0.26600
C532        C  0.79961436  0.42436795  0.44372070    -0.11100
C533        C  0.81894428  0.42487338  0.47822349    -0.25100
C534        C  0.80441011  0.44075752  0.99250379     0.37400
C535        C  0.70493944  0.46899583  0.47024563     0.07000
F536        F  0.74419006  0.43745867  0.40721801    -0.18900
H537        H  0.80974724  0.40613232  0.42148482     0.16800
F538        F  0.82388379  0.43920794  0.02536837    -0.22600
H539        H  0.75762092  0.47154651  0.01664706     0.18600
C540        C  0.68215851  0.45332986  0.49851248     0.26600
C541        C  0.64243813  0.45757620  0.49765836    -0.11100
C542        C  0.62395353  0.47754113  0.46869321    -0.25100
C543        C  0.64675641  0.49383968  0.44055466     0.37500
C544        C  0.68678167  0.48936676  0.44132488    -0.26800
F545        F  0.69814037  0.43223585  0.52626261    -0.18900
H546        H  0.62604525  0.44463216  0.51975421     0.16800
F547        F  0.63050604  0.51325071  0.41179900    -0.22600
H548        H  0.69887706  0.49957812  0.91501417     0.18600
N549        N  0.87765887  0.37905780  0.96703232    -0.01900
C550        C  0.84194937  0.39110597  0.48871075     0.00700
C551        C  0.82488941  0.36094151  0.50642946    -0.22200
C552        C  0.85223248  0.33344756  0.51044020    -0.22400
C553        C  0.88533696  0.34749474  0.49505583     0.00600
H554        H  0.79525081  0.35884844  0.51460286     0.14400
H555        H  0.84798722  0.30530197  0.52170080     0.14400
N556        N  0.86756277  0.36525081  0.79005605    -0.01900
C557        C  0.83241300  0.37428300  0.80382368     0.00700
C558        C  0.81969411  0.34596426  0.82717270    -0.22200
C559        C  0.84722662  0.31825396  0.82750541    -0.22400
C560        C  0.87625298  0.33043732  0.80446305     0.00600
H561        H  0.79163947  0.34390646  0.83953827     0.14400
H562        H  0.84464306  0.29067941  0.84047709     0.14400
N563        N  0.58006542  0.86268832  0.02640522    -0.01900
C564        C  0.61737037  0.86500571  0.03721933     0.00700
C565        C  0.62961269  0.83113626  0.05273459    -0.22200
C566        C  0.59927207  0.80693814  0.05127000    -0.22400
C567        C  0.56931656  0.82670325  0.03503995     0.00600
H568        H  0.65836792  0.82391401  0.06160985     0.14400
H569        H  0.59981417  0.77714002  0.05856550     0.14400
N570        N  0.57698001  0.86584356  0.71649621    -0.01900
C571        C  0.61548293  0.86953652  0.72049743     0.00700
C572        C  0.63321517  0.83444256  0.72089071    -0.22200
C573        C  0.60506777  0.80801900  0.71703980    -0.22400
C574        C  0.57100708  0.82777347  0.71431533     0.00600
H575        H  0.66358348  0.82880671  0.72306065     0.14400
H576        H  0.60888534  0.77752443  0.71656414     0.14400
O577        O  0.89090687  0.94758633  0.95466470    -0.76900
C578        C  0.98333220  0.97474267  0.87336899     0.84100
O579        O  0.00684976  0.88588939  0.99674484    -0.78000
O580        O  0.06939078  0.00363931  0.96342847    -0.79500
O581        O  0.94972751  0.06459851  0.99418306    -0.79300
O582        O  0.88726899  0.99254069  0.99802271    -0.78000
Zn583      Zn  0.94806037  0.94197934  0.94437790     1.55700
O584        O  0.99706590  0.06682804  0.95312682    -0.79300
Cd585      Cd  0.93900837  0.00569196  0.51024612     1.59700
Cd586      Cd  0.00723103  0.94111029  0.50723931     1.59600
O587        O  0.95218461  0.99430650  0.56573871    -0.79300
O588        O  0.97846907  0.97522701  0.97640582    -1.89800
Cd589      Cd  0.01235366  0.00969380  0.94680308     1.59900
O590        O  0.99621104  0.94814602  0.56395146    -0.79300
O591        O  0.00654858  0.99643529  0.89067153    -0.78000
C592        C  0.98603540  0.86847715  0.97301828     0.84600
C593        C  0.87126089  0.96819722  0.97684557     0.84200
O594        O  0.95923319  0.95409464  0.89043039    -0.76900
C595        C  0.97171300  0.08341164  0.97284760     0.85100
O596        O  0.96245110  0.88643130  0.95213909    -0.77000
C597        C  0.97452555  0.97077617  0.58206921     0.85200
C598        C  0.08645737  0.98211655  0.98699449     0.85500
O599        O  0.06823473  0.95773617  0.00603756    -0.79400
O600        O  0.96323192  0.88213428  0.75398985    -0.76900
C601        C  0.98405952  0.97365189  0.83241154     0.84100
O602        O  0.88822311  0.98984556  0.70840095    -0.78000
O603        O  0.99966037  0.06226753  0.75027611    -0.79500
O604        O  0.06992982  0.95367799  0.70011629    -0.79300
O605        O  0.00585811  0.88066054  0.70825142    -0.78000
Zn606      Zn  0.95054584  0.93823200  0.76147797     1.55700
O607        O  0.07176691  0.99801791  0.74465509    -0.79300
Cd608      Cd  0.01265306  0.93821812  0.69540564     1.59700
Cd609      Cd  0.94492134  0.00323052  0.69754478     1.59600
O610        O  0.99790530  0.94679423  0.63973703    -0.79300
O611        O  0.98031554  0.97088655  0.72864410    -1.89800
Cd612      Cd  0.01437586  0.00538050  0.75861975     1.59900
O613        O  0.95466131  0.99365676  0.64110681    -0.79300
O614        O  0.00716389  0.99509710  0.81505865    -0.78000
C615        C  0.87312833  0.96638353  0.73098097     0.84600
C616        C  0.98512471  0.86356752  0.73214727     0.84200
O617        O  0.96121852  0.95148183  0.81532227    -0.76900
C618        C  0.08833048  0.97734326  0.72028310     0.85100
O619        O  0.89375005  0.94555066  0.75223284    -0.77000
C620        C  0.97564685  0.97024314  0.62319671     0.85200
C621        C  0.97431833  0.07933836  0.73059804     0.85500
O622        O  0.95182209  0.06092171  0.70911448    -0.79400
N623        N  0.07594250  0.57600243  0.91246369    -0.01900
C624        C  0.11048027  0.56691718  0.89768559     0.00700
C625        C  0.12289928  0.59538085  0.87429604    -0.22200
C626        C  0.09547343  0.62322985  0.87496349    -0.22400
C627        C  0.06717953  0.61100485  0.89880416     0.00600
H628        H  0.15041887  0.59723174  0.86082924     0.14400
H629        H  0.09772087  0.65100534  0.86231742     0.14400
N630        N  0.06308276  0.56188296  0.72301444    -0.01900
C631        C  0.09603275  0.55368447  0.70464957     0.00700
C632        C  0.10868567  0.58471102  0.68490711    -0.22200
C633        C  0.08292206  0.61326574  0.69113974    -0.22400
C634        C  0.05529592  0.59879291  0.71443887     0.00600
H635        H  0.13507635  0.58695164  0.66949716     0.14400
H636        H  0.08498231  0.64217384  0.68120194     0.14400
N637        N  0.38335751  0.07099551  0.02393194    -0.01900
C638        C  0.34699151  0.06796881  0.03691098     0.00700
C639        C  0.33308573  0.10289534  0.04791828    -0.22200
C640        C  0.36143163  0.12846890  0.04161187    -0.22400
C641        C  0.39206957  0.10847757  0.02728134     0.00600
H642        H  0.30425975  0.10952561  0.05665532     0.14400
H643        H  0.35903281  0.15895312  0.04457508     0.14400
N644        N  0.38221593  0.06898754  0.66305309    -0.01900
C645        C  0.34845856  0.05637520  0.64878453     0.00700
C646        C  0.33550929  0.08027271  0.62084284    -0.22200
C647        C  0.36135958  0.10909590  0.61820425    -0.22400
C648        C  0.38947292  0.10190378  0.64458293     0.00600
H649        H  0.30792492  0.07930414  0.60703113     0.14400
H650        H  0.35774634  0.13459723  0.60172145     0.14400
O651        O  0.44587071  0.44570743  0.88548940    -0.76900
C652        C  0.46935737  0.36453729  0.97623080     0.84100
O653        O  0.38082485  0.49758874  0.99199956    -0.78000
O654        O  0.49454497  0.46067559  0.55753072    -0.79500
O655        O  0.56105292  0.49159002  0.94408986    -0.79300
O656        O  0.48823434  0.49276038  0.88237262    -0.78000
Zn657      Zn  0.43666242  0.43793136  0.94120977     1.55700
O658        O  0.56239834  0.44925985  0.99007263    -0.79300
Cd659      Cd  0.50283014  0.50325061  0.93734155     1.59700
Cd660      Cd  0.43884463  0.51688657  0.50145496     1.59600
O661        O  0.49498990  0.56064081  0.94882227    -0.79300
O662        O  0.47039478  0.47097534  0.97032058    -1.89800
Cd663      Cd  0.50491997  0.45006511  0.50158299     1.59900
O664        O  0.45074040  0.56221498  0.99314266    -0.79300
O665        O  0.49500354  0.38188421  0.99490567    -0.78000
C666        C  0.36281435  0.47485548  0.97062449     0.84600
C667        C  0.46611449  0.46882587  0.86669974     0.84200
O668        O  0.44553148  0.38242633  0.95543901    -0.76900
C669        C  0.57961252  0.47004377  0.96644425     0.85100
O670        O  0.38063117  0.45067075  0.95058266    -0.77000
C671        C  0.47393920  0.57909437  0.97153145     0.85200
C672        C  0.47041007  0.48128960  0.57488391     0.85500
O673        O  0.44702683  0.50332078  0.55777971    -0.79400
O674        O  0.48575622  0.49111918  0.80788576    -0.76900
C675        C  0.57310230  0.46415200  0.72871784     0.84100
O676        O  0.44256454  0.56260234  0.70347641    -0.78000
O677        O  0.49197448  0.45596543  0.63270545    -0.79500
O678        O  0.44111509  0.38079771  0.73768123    -0.79300
O679        O  0.44246360  0.44496574  0.80878999    -0.78000
Zn680      Zn  0.49848175  0.50207704  0.75419537     1.55700
O681        O  0.48433621  0.38261333  0.69237040    -0.79300
Cd682      Cd  0.43216759  0.43739712  0.75186465     1.59700
Cd683      Cd  0.43304961  0.50590684  0.69006345     1.59600
O684        O  0.37462816  0.44835143  0.74103487    -0.79300
O685        O  0.46592510  0.47160317  0.72155775    -1.89800
Cd686      Cd  0.49879265  0.43968117  0.68831334     1.59900
O687        O  0.37565660  0.49359013  0.69770275    -0.79300
O688        O  0.55574865  0.44385143  0.70452864    -0.78000
C689        C  0.46665478  0.57828644  0.72540209     0.84600
C690        C  0.46449332  0.46818993  0.82562748     0.84200
O691        O  0.55510663  0.48856753  0.74836277    -0.76900
C692        C  0.46162198  0.36412967  0.71324272     0.85100
O693        O  0.48966721  0.55845323  0.74527304    -0.77000
C694        C  0.35731672  0.47071459  0.71852778     0.85200
C695        C  0.46920180  0.47885961  0.61597519     0.85500
O696        O  0.44507313  0.49919133  0.63365694    -0.79400
C697        C  0.42265119  0.26344838  0.71457601    -0.26700
C698        C  0.45029788  0.24347723  0.69400050     0.07000
C699        C  0.48267297  0.26312369  0.68147472     0.26600
C700        C  0.48658223  0.30204692  0.68851571    -0.11100
C701        C  0.45842887  0.32227810  0.70830856    -0.25100
C702        C  0.42657539  0.30228460  0.72177489     0.37400
C703        C  0.44303568  0.20340082  0.68277314     0.07000
F704        F  0.51045884  0.24472494  0.66223417    -0.18900
H705        H  0.51158632  0.31646544  0.67808186     0.16800
F706        F  0.39819997  0.32047070  0.74039739    -0.22600
H707        H  0.39704261  0.24925358  0.72386201     0.18600
C708        C  0.42998623  0.17639094  0.70866398     0.26600
C709        C  0.41637613  0.14112113  0.69640431    -0.11100
C710        C  0.41520913  0.13236560  0.65816506    -0.25100
C711        C  0.43139827  0.15797539  0.63272338     0.37500
C712        C  0.44506996  0.19310516  0.64493473    -0.26800
F713        F  0.42868546  0.18480311  0.74561010    -0.18900
H714        H  0.40391332  0.12198191  0.71651269     0.16800
F715        F  0.43170617  0.15004372  0.59566355    -0.22600
H716        H  0.45488300  0.21325353  0.62436807     0.18600
C717        C  0.46591699  0.18220506  0.02415081    -0.26700
C718        C  0.45286331  0.20153223  0.99214574     0.07000
C719        C  0.42982042  0.18196251  0.96633308     0.26600
C720        C  0.41550038  0.14615340  0.97509652    -0.11100
C721        C  0.42371170  0.12935136  0.00974979    -0.25100
C722        C  0.45160877  0.14608636  0.03277475     0.37400
C723        C  0.45803253  0.24325113  0.98834382     0.07000
F724        F  0.41797336  0.19915310  0.93436039    -0.18900
H725        H  0.39385220  0.13395374  0.95703284     0.16800
F726        F  0.39324493  0.14583773  0.52537370    -0.22600
H727        H  0.42809159  0.21081356  0.52642334     0.18600
C728        C  0.42572326  0.26703113  0.98476414     0.26600
C729        C  0.42987140  0.30611724  0.97999834    -0.11100
C730        C  0.46617431  0.32271973  0.97981452    -0.25100
C731        C  0.49859254  0.29920010  0.98461292     0.37500
C732        C  0.49445197  0.25977297  0.98875854    -0.26800
F733        F  0.38995994  0.25250890  0.98695183    -0.18900
H734        H  0.40441689  0.32368378  0.97740653     0.16800
F735        F  0.53421901  0.31419443  0.98435578    -0.22600
H736        H  0.51972574  0.24203548  0.99185165     0.18600
C737        C  0.25216000  0.45220865  0.74004468    -0.26700
C738        C  0.23387616  0.47514674  0.71325233     0.07000
C739        C  0.25636079  0.49504594  0.68748702     0.26600
C740        C  0.29614695  0.49268015  0.68904497    -0.11100
C741        C  0.31476393  0.47054215  0.71632693    -0.25100
C742        C  0.29220041  0.44954218  0.74144210     0.37400
C743        C  0.19205059  0.48248623  0.71458591     0.07000
F744        F  0.23994682  0.51874497  0.66210260    -0.18900
H745        H  0.31242089  0.50908408  0.66920287     0.16800
F746        F  0.30863606  0.42729392  0.76802814    -0.22600
H747        H  0.23538733  0.43690290  0.76033971     0.18600
C748        C  0.16975458  0.48106644  0.68179415     0.26600
C749        C  0.13478278  0.50040373  0.67997143    -0.11100
C750        C  0.12119250  0.52053183  0.71101284    -0.25100
C751        C  0.14078624  0.51735341  0.74521397     0.37500
C752        C  0.17607465  0.49842349  0.74694116    -0.26800
F753        F  0.18353972  0.46419366  0.65053620    -0.18900
H754        H  0.12010471  0.50271995  0.65334353     0.16800
F755        F  0.12865106  0.53717511  0.77543193    -0.22600
H756        H  0.19266874  0.49975296  0.77253544     0.18600
C757        C  0.19457806  0.50019863  0.90129600    -0.26700
C758        C  0.20222675  0.49929673  0.93985485     0.07000
C759        C  0.17456117  0.51403481  0.96444691     0.26600
C760        C  0.14191031  0.53250768  0.95043519    -0.11100
C761        C  0.13652494  0.53680404  0.91180279    -0.25100
C762        C  0.16207348  0.51871120  0.88736897     0.37400
C763        C  0.24125616  0.48863365  0.95321542     0.07000
F764        F  0.18347617  0.52856593  0.49085698    -0.18900
H765        H  0.12256737  0.55628555  0.45931201     0.16800
F766        F  0.15708474  0.52138364  0.84987192    -0.22600
H767        H  0.21528775  0.48924784  0.88164545     0.18600
C768        C  0.26059005  0.45667096  0.93899319     0.26600
C769        C  0.29969361  0.45139710  0.94612841    -0.11100
C770        C  0.32036348  0.47770935  0.96774935    -0.25100
C771        C  0.30026745  0.50822027  0.98412906     0.37500
C772        C  0.26134164  0.51361258  0.97667315    -0.26800
F773        F  0.24191281  0.43106924  0.91735069    -0.18900
H774        H  0.31403978  0.42723940  0.93368679     0.16800
F775        F  0.31857398  0.55035670  0.49448427    -0.22600
H776        H  0.24741183  0.53873981  0.98763918     0.18600
C777        C  0.18257357  0.99131750  0.67094819    -0.26700
C778        C  0.20870060  0.99443295  0.70080212     0.07000
C779        C  0.19476636  0.99116363  0.73753569     0.26600
C780        C  0.15563093  0.98548280  0.74393009    -0.11100
C781        C  0.12984247  0.98208735  0.71390134    -0.25100
C782        C  0.14377686  0.98484962  0.67731993     0.37400
C783        C  0.24948206  0.00394974  0.69297368     0.07000
F784        F  0.21894430  0.99313308  0.76723492    -0.18900
H785        H  0.14548628  0.98341791  0.77234485     0.16800
F786        F  0.11949841  0.98326380  0.64765885    -0.22600
H787        H  0.19196865  0.99506478  0.64246364     0.18600
C788        C  0.26913220  0.98692249  0.66296556     0.26600
C789        C  0.30409517  0.00156327  0.65088950    -0.11100
C790        C  0.32063540  0.03273661  0.66899926    -0.25100
C791        C  0.30269950  0.04778051  0.70079120     0.37500
C792        C  0.26748799  0.03354518  0.71258427    -0.26800
F793        F  0.25361920  0.95732965  0.64406724    -0.18900
H794        H  0.31704105  0.99015043  0.62587317     0.16800
F795        F  0.31707853  0.07903808  0.71788881    -0.22600
H796        H  0.25298699  0.04771739  0.73529769     0.18600
C797        C  0.97535694  0.76133157  0.76716254    -0.26700
C798        C  0.99185159  0.74073099  0.73777893     0.07000
C799        C  0.00520665  0.76058217  0.70647279     0.26600
C800        C  0.00278263  0.80021683  0.70492678    -0.11100
C801        C  0.98651880  0.82117894  0.73430061    -0.25100
C802        C  0.97221153  0.80109705  0.76535039     0.37400
C803        C  0.99794815  0.69896863  0.74030438     0.07000
F804        F  0.02197138  0.74163878  0.67785871    -0.18900
H805        H  0.01385888  0.81454811  0.68058283     0.16800
F806        F  0.95602452  0.81979446  0.79441260    -0.22600
H807        H  0.96508981  0.74658354  0.79161955     0.18600
C808        C  0.02446373  0.68388527  0.76602964     0.26600
C809        C  0.03850738  0.64682452  0.76147965    -0.11100
C810        C  0.02654183  0.62440368  0.73115601    -0.25100
C811        C  0.99663740  0.63786534  0.70832369     0.37500
C812        C  0.98257415  0.67492378  0.71280856    -0.26800
F813        F  0.04035621  0.70645394  0.79255555    -0.18900
H814        H  0.06228659  0.63748754  0.77876827     0.16800
F815        F  0.98468445  0.61702598  0.67864595    -0.22600
H816        H  0.96196245  0.68593428  0.69282714     0.18600
C817        C  0.18642278  0.97286259  0.50379446    -0.26700
C818        C  0.20757811  0.99664052  0.00653357     0.07000
C819        C  0.18650009  0.02315336  0.98534849     0.26600
C820        C  0.14750548  0.01782852  0.97860425    -0.11100
C821        C  0.12842022  0.98612287  0.99302335    -0.25100
C822        C  0.14666809  0.96768238  0.50499805     0.37400
C823        C  0.24849347  0.00375487  0.01514117     0.07000
F824        F  0.20332756  0.05513330  0.97244209    -0.18900
H825        H  0.13204356  0.03915218  0.96270236     0.16800
F826        F  0.13129193  0.95089115  0.53544040    -0.22600
H827        H  0.20386085  0.96318989  0.52704780     0.18600
C828        C  0.26076726  0.00890402  0.05223966     0.26600
C829        C  0.29634943  0.02528228  0.05963955    -0.11100
C830        C  0.32037270  0.03624516  0.03035380    -0.25100
C831        C  0.30999412  0.02699345  0.99352906     0.37500
C832        C  0.27419595  0.01102101  0.98604727    -0.26800
F833        F  0.23944557  0.02899378  0.53490399    -0.18900
H834        H  0.30348486  0.03305347  0.08807733     0.16800
F835        F  0.33202633  0.03813011  0.96452876    -0.22600
H836        H  0.26534588  0.00696141  0.95728737     0.18600
C837        C  0.96856109  0.76574588  0.94448268    -0.26700
C838        C  0.00299749  0.74808647  0.95538680     0.07000
C839        C  0.03074835  0.77006129  0.97403074     0.26600
C840        C  0.02423672  0.80865185  0.98097746    -0.11100
C841        C  0.99043011  0.82663207  0.96879200    -0.25100
C842        C  0.96231918  0.80452985  0.95087488     0.37400
C843        C  0.01155445  0.70830782  0.94349444     0.07000
F844        F  0.06533144  0.75505810  0.98329039    -0.18900
H845        H  0.04660892  0.82490296  0.99444303     0.16800
F846        F  0.92892902  0.82037477  0.93910106    -0.22600
H847        H  0.94669077  0.74958508  0.93014368     0.18600
C848        C  0.02945716  0.68200950  0.96766707     0.26600
C849        C  0.04403013  0.64770821  0.95369872    -0.11100
C850        C  0.04030738  0.63864255  0.91567343    -0.25100
C851        C  0.01921521  0.66317115  0.89239033     0.37500
C852        C  0.00502706  0.69759352  0.90617272    -0.26800
F853        F  0.03452542  0.69019447  0.00438710    -0.18900
H854        H  0.06112095  0.62989969  0.97196132     0.16800
F855        F  0.01516846  0.65526283  0.85550403    -0.23000
H856        H  0.99125138  0.71705617  0.88688986     0.18600
C857        C  0.43801971  0.99565147  0.71802374    -0.26700
C858        C  0.46756625  0.98678545  0.69289909     0.07000
C859        C  0.46980146  0.00736444  0.65937952     0.26600
C860        C  0.44256765  0.03521917  0.65074791    -0.11100
C861        C  0.41225512  0.04331770  0.67513724    -0.25100
C862        C  0.41042216  0.02351892  0.70915534     0.37400
C863        C  0.49494690  0.95500172  0.70036804     0.07000
F864        F  0.49828677  0.00031293  0.63474234    -0.18900
H865        H  0.44440026  0.04977856  0.62421929     0.16800
F866        F  0.38192270  0.03085701  0.73359557    -0.22600
H867        H  0.43565078  0.98016754  0.74398858     0.18600
C868        C  0.51718049  0.95343078  0.73326028     0.26600
C869        C  0.54414114  0.92412971  0.73853399    -0.11100
C870        C  0.54901864  0.89572774  0.71138312    -0.25100
C871        C  0.52655879  0.89715691  0.67878198     0.37500
C872        C  0.49988107  0.92640503  0.67340689    -0.26800
F873        F  0.51369487  0.98081241  0.75969181    -0.18900
H874        H  0.56113275  0.92347872  0.76383596     0.16800
F875        F  0.53142455  0.87098156  0.65145840    -0.22600
H876        H  0.48313739  0.92689269  0.64787917     0.18600
C877        C  0.50475854  0.75211185  0.68461346    -0.26700
C878        C  0.49091934  0.74053847  0.71953096     0.07000
C879        C  0.49515272  0.76527031  0.75022304     0.26600
C880        C  0.51667458  0.79851319  0.74679965    -0.11100
C881        C  0.53434750  0.80742250  0.71291201    -0.25100
C882        C  0.52640215  0.78512384  0.68132648     0.37400
C883        C  0.47886139  0.70035506  0.72463404     0.07000
F884        F  0.48123711  0.75575236  0.78421104    -0.18900
H885        H  0.52312997  0.81489773  0.77161598     0.16800
F886        F  0.54389259  0.79243714  0.64841536    -0.22600
H887        H  0.50235181  0.73364100  0.66056746     0.18600
C888        C  0.45490583  0.68219061  0.69855109     0.26600
C889        C  0.44987613  0.64277349  0.69982728    -0.11100
C890        C  0.46865245  0.62052198  0.72703723    -0.25100
C891        C  0.49073778  0.63909536  0.75448175     0.37500
C892        C  0.49583249  0.67841562  0.75308249    -0.26800
F893        F  0.43713797  0.70242026  0.67121152    -0.18900
H894        H  0.43226667  0.62953069  0.67859507     0.16800
F895        F  0.50839383  0.61928827  0.78218785    -0.22600
H896        H  0.51482360  0.69142547  0.77328895     0.18600
C897        C  0.68624099  0.93800489  0.75714642    -0.26700
C898        C  0.70927654  0.94218403  0.72539084     0.07000
C899        C  0.69469098  0.93052872  0.69050763     0.26600
C900        C  0.65935234  0.91229676  0.68817769    -0.11100
C901        C  0.63839315  0.90447602  0.72049676    -0.25100
C902        C  0.65122972  0.91903827  0.75482613     0.37400
C903        C  0.75034397  0.95238228  0.72960543     0.07000
F904        F  0.71660478  0.93215888  0.65943917    -0.18900
H905        H  0.65069504  0.89997567  0.66172748     0.16800
F906        F  0.63248247  0.91056711  0.78677572    -0.22600
H907        H  0.69681979  0.94669751  0.78430331     0.18600
C908        C  0.76791449  0.97860971  0.70574247     0.26600
C909        C  0.80760168  0.98366463  0.70695348    -0.11100
C910        C  0.83069191  0.96282607  0.73204149    -0.25100
C911        C  0.81271270  0.93793990  0.75718026     0.37500
C912        C  0.77310644  0.93287805  0.75583579    -0.26800
F913        F  0.74676417  0.99912787  0.68101810    -0.18900
H914        H  0.82032131  0.00346622  0.68761953     0.16800
F915        F  0.83330026  0.91766015  0.78255291    -0.22600
H916        H  0.76035170  0.91239666  0.77446831     0.18600
C917        C  0.52312317  0.95036477  0.04878760    -0.26700
C918        C  0.49737961  0.95230813  0.01857687     0.07000
C919        C  0.50077966  0.92549413  0.98964928     0.26600
C920        C  0.52869763  0.89672642  0.99157271    -0.11100
C921        C  0.55403281  0.89445062  0.02209350    -0.25100
C922        C  0.55120400  0.92192621  0.05052035     0.37400
C923        C  0.46644866  0.98159633  0.01832272     0.07000
F924        F  0.47609520  0.92617107  0.96029407    -0.18900
H925        H  0.53019329  0.87610023  0.96939187     0.16800
F926        F  0.55909992  0.94587921  0.57711964    -0.22600
H927        H  0.50758608  0.99510103  0.55656333     0.18600
C928        C  0.44058335  0.98397729  0.04810948     0.26600
C929        C  0.41290159  0.01276549  0.04906739    -0.11100
C930        C  0.41025624  0.03989865  0.02040078    -0.25100
C931        C  0.43520786  0.03682428  0.98989677     0.37500
C932        C  0.46301355  0.00785504  0.98889650    -0.26800
F933        F  0.44190187  0.95820170  0.07621016    -0.18900
H934        H  0.39391921  0.01444403  0.07273949     0.16800
F935        F  0.43239203  0.06137777  0.96089910    -0.22600
H936        H  0.48234669  0.00631878  0.96547529     0.18600
C937        C  0.51608456  0.76325696  0.97052436    -0.26700
C938        C  0.49735709  0.73992270  0.99639224     0.07000
C939        C  0.48698677  0.76646838  0.53435574     0.26600
C940        C  0.51334620  0.78545608  0.04517135    -0.11100
C941        C  0.53595871  0.80599346  0.02015986    -0.25100
C942        C  0.53581722  0.79555122  0.98232350     0.37400
C943        C  0.48804254  0.69998804  0.98598932     0.07000
F944        F  0.46665085  0.74527333  0.55872061    -0.18900
H945        H  0.49908419  0.80875799  0.57590285     0.16800
F946        F  0.55933552  0.81304047  0.95784537    -0.22600
H947        H  0.51859584  0.75443636  0.94166726     0.18600
C948        C  0.45416568  0.68215726  0.99739690     0.26600
C949        C  0.44921175  0.64307733  0.99172570    -0.11100
C950        C  0.47750956  0.62111101  0.97393448    -0.25100
C951        C  0.51029276  0.63952210  0.96056032     0.37500
C952        C  0.51547082  0.67827586  0.96680568    -0.26800
F953        F  0.42593412  0.70237248  0.01412103    -0.18900
H954        H  0.42333437  0.62988617  0.00171444     0.16800
F955        F  0.53849818  0.61985185  0.94317146    -0.22600
H956        H  0.54201696  0.69100167  0.95794587     0.18600
C957        C  0.68393894  0.92308931  0.97821281    -0.26700
C958        C  0.71312462  0.93085203  0.00428491     0.07000
C959        C  0.70677374  0.92259128  0.04217338     0.26600
C960        C  0.67308563  0.90494984  0.05325268    -0.11100
C961        C  0.64501970  0.89487509  0.02697079    -0.25100
C962        C  0.65006489  0.90527531  0.98941924     0.37400
C963        C  0.75133120  0.94449988  0.99221198     0.07000
F964        F  0.71979572  0.95375260  0.57440040    -0.18900
H965        H  0.65393233  0.92459212  0.58914645     0.16800
F966        F  0.62411609  0.89489243  0.96307454    -0.22600
H967        H  0.68809170  0.92934009  0.94893407     0.18600
C968        C  0.77256690  0.92471963  0.96510171     0.26600
C969        C  0.81100760  0.93373342  0.95889337    -0.11100
C970        C  0.82910465  0.96262042  0.97950657    -0.25100
C971        C  0.80691521  0.98398420  0.00483143     0.37500
C972        C  0.76861099  0.97492536  0.01096900    -0.26800
F973        F  0.75703426  0.89499209  0.94642030    -0.18900
H974        H  0.82703332  0.91692007  0.93902698     0.16800
F975        F  0.82242660  0.01272551  0.02497044    -0.22600
H976        H  0.75269024  0.99093245  0.03156111     0.18600
C977        C  0.92250777  0.44027532  0.73844466    -0.26700
C978        C  0.95111667  0.44981820  0.76463742     0.07000
C979        C  0.95156675  0.43074737  0.79915278     0.26600
C980        C  0.92422165  0.40296907  0.80699915    -0.11100
C981        C  0.89599006  0.39322377  0.78059749    -0.25100
C982        C  0.89545538  0.41216122  0.74615378     0.37400
C983        C  0.98095524  0.47847386  0.75501326     0.07000
F984        F  0.97921935  0.43791440  0.82480441    -0.18900
H985        H  0.92500625  0.38887311  0.83384532     0.16800
F986        F  0.86948070  0.40300534  0.71955410    -0.22600
H987        H  0.92111700  0.45461266  0.71175131     0.18600
C988        C  0.99930561  0.47690275  0.72018903     0.26600
C989        C  0.02625306  0.50417070  0.71043938    -0.11100
C990        C  0.03592749  0.53372676  0.73496451    -0.25100
C991        C  0.01847514  0.53515241  0.77014916     0.37500
C992        C  0.99123708  0.50770446  0.78008105    -0.26800
F993        F  0.99170385  0.44855007  0.69563470    -0.18900
H994        H  0.03949253  0.50248650  0.68323849     0.16800
F995        F  0.02815039  0.56261565  0.79494360    -0.22600
H996        H  0.97774863  0.50965036  0.80714347     0.18600
C997        C  0.94052285  0.24432601  0.80140080    -0.26700
C998        C  0.94384538  0.23802214  0.76285877     0.07000
C999        C  0.93085674  0.26669319  0.73825715     0.26600
C1000       C  0.91237094  0.29934111  0.75212343    -0.11100
C1001       C  0.90623310  0.30376844  0.79063304    -0.25100
C1002       C  0.92205483  0.27661275  0.81509170     0.37400
C1003       C  0.95627655  0.19968207  0.74940476     0.07000
F1004       F  0.93447561  0.26239479  0.70080158    -0.18900
H1005       H  0.90021795  0.31957989  0.73259448     0.16800
F1006       F  0.91692162  0.27962962  0.85237141    -0.22600
H1007       H  0.94967294  0.22283604  0.82115610     0.18600
C1008       C  0.98710074  0.18027813  0.76641810     0.26600
C1009       C  0.99372372  0.14175617  0.75893484    -0.11100
C1010       C  0.97002045  0.12147592  0.73415986    -0.25100
C1011       C  0.94082053  0.14161466  0.71517164     0.37500
C1012       C  0.93403232  0.18009556  0.72292537    -0.26800
F1013       F  0.01028927  0.19828618  0.79115169    -0.18900
H1014       H  0.01683827  0.12750826  0.77360834     0.16800
F1015       F  0.91759615  0.12391368  0.69026975    -0.22600
H1016       H  0.90987160  0.19400247  0.70961457     0.18600
C1017       C  0.75538676  0.40983565  0.73906828    -0.26700
C1018       C  0.73358302  0.43302577  0.76299555     0.07000
C1019       C  0.74904473  0.44188020  0.79843960     0.26600
C1020       C  0.78419251  0.42621961  0.80998156    -0.11100
C1021       C  0.80441978  0.40103065  0.78688508    -0.25100
C1022       C  0.78974154  0.39325095  0.75112654     0.37400
C1023       C  0.69310881  0.44299633  0.75251889     0.07000
F1024       F  0.72868738  0.46249181  0.82344072    -0.18900
H1025       H  0.79411357  0.43128670  0.83822160     0.16800
F1026       F  0.80598196  0.36594606  0.72959892    -0.22600
H1027       H  0.74450473  0.40233270  0.71170624     0.18600
C1028       C  0.67649419  0.47872608  0.76029654     0.26600
C1029       C  0.63767062  0.48570942  0.75226149    -0.11100
C1030       C  0.61480689  0.45777994  0.73525783    -0.25100
C1031       C  0.63182069  0.42266281  0.72628642     0.37500
C1032       C  0.67010581  0.41538179  0.73520667    -0.26800
F1033       F  0.69776813  0.50722133  0.77491698    -0.18900
H1034       H  0.62552460  0.51315152  0.75915217     0.16800
F1035       F  0.61109923  0.39449691  0.71027416    -0.22600
H1036       H  0.68149814  0.38739640  0.72929850     0.18600
C1037       C  0.00974337  0.49338468  0.90199283    -0.26700
C1038       C  0.99084324  0.49302433  0.93639005     0.07000
C1039       C  0.00095398  0.52035783  0.96348874     0.26600
C1040       C  0.02908596  0.54755333  0.95591035    -0.11100
C1041       C  0.04763371  0.54783734  0.92132163    -0.25100
C1042       C  0.03765797  0.52042068  0.89444756     0.37400
C1043       C  0.96140141  0.46356052  0.94386817     0.07000
F1044       F  0.99606140  0.52111156  0.50111696    -0.18900
H1045       H  0.04615901  0.56749363  0.47358631     0.16800
F1046       F  0.05483479  0.52004246  0.86060054    -0.22600
H1047       H  0.00322594  0.47233821  0.88103696     0.18600
C1048       C  0.93180561  0.45601743  0.91798263     0.26600
C1049       C  0.90449259  0.42808261  0.92550283    -0.11100
C1050       C  0.90640881  0.40689544  0.95862775    -0.25100
C1051       C  0.94170983  0.41557185  0.49118551     0.37500
C1052       C  0.96820819  0.44350862  0.48132155    -0.26800
F1053       F  0.92873818  0.47624528  0.88585885    -0.18900
H1054       H  0.88183917  0.42285190  0.90543859     0.16800
F1055       F  0.94817794  0.39484096  0.52249154    -0.22600
H1056       H  0.99381491  0.44678618  0.49811214     0.18600
C1057       C  0.98697050  0.18867053  0.95060467    -0.26700
C1058       C  0.95870540  0.20579414  0.97273777     0.07000
C1059       C  0.93390342  0.18235215  0.99303159     0.26600
C1060       C  0.93842596  0.14301140  0.99261576    -0.11100
C1061       C  0.96737727  0.12558923  0.97153872    -0.25100
C1062       C  0.99142513  0.14896097  0.94998938     0.37400
C1063       C  0.95338512  0.24776068  0.97404083     0.07000
F1064       F  0.90571274  0.19729161  0.52704186    -0.18900
H1065       H  0.91887306  0.12613646  0.00892104     0.16800
F1066       F  0.01932819  0.13365716  0.92848392    -0.22600
H1067       H  0.00589208  0.20609224  0.93413613     0.18600
C1068       C  0.95024432  0.26718193  0.51688881     0.26600
C1069       C  0.93465377  0.30372437  0.51969935    -0.11100
C1070       C  0.91884656  0.31999190  0.97735301    -0.25100
C1071       C  0.92996091  0.30487924  0.94282543     0.37500
C1072       C  0.94681842  0.26860643  0.94111038    -0.26800
F1073       F  0.96312127  0.24962548  0.54829368    -0.18900
H1074       H  0.93168300  0.31636269  0.54710987     0.16800
F1075       F  0.91954913  0.32286643  0.91086745    -0.22600
H1076       H  0.95127886  0.25544052  0.91417818     0.18600
C1077       C  0.76863824  0.46561271  0.50287493    -0.26700
C1078       C  0.74497585  0.45540838  0.95968001     0.07000
C1079       C  0.76014368  0.43884913  0.92720496     0.26600
C1080       C  0.79607522  0.42114221  0.92830155    -0.11100
C1081       C  0.81718528  0.41964611  0.96170761    -0.25100
C1082       C  0.80421319  0.44760720  0.50704496     0.37400
C1083       C  0.70312282  0.46236179  0.96277340     0.07000
F1084       F  0.73818913  0.43505287  0.89611903    -0.18900
H1085       H  0.80499734  0.40424370  0.90459559     0.16800
F1086       F  0.82167912  0.44801540  0.54098651    -0.22600
H1087       H  0.75646346  0.48029212  0.52660038     0.18600
C1088       C  0.68215430  0.44337214  0.99036961     0.26600
C1089       C  0.64237958  0.44655626  0.99150844    -0.11100
C1090       C  0.62223776  0.46865031  0.96518325    -0.25100
C1091       C  0.64333168  0.48824565  0.93784331     0.37500
C1092       C  0.68333061  0.48489722  0.93665104    -0.26800
F1093       F  0.69997462  0.42010961  0.01525425    -0.18900
H1094       H  0.62728772  0.43101596  0.01286105     0.16800
F1095       F  0.62545425  0.51002856  0.91177165    -0.22600
H1096       H  0.70360575  0.50155633  0.41912154     0.18600
loop_ 
_geom_bond_atom_site_label_1 
_geom_bond_atom_site_label_2 
_geom_bond_distance 
_geom_bond_site_symmetry_2 
_ccdc_geom_bond_type 
N1          C502   1.449       .  S
N1          C553   1.366       .  A
N1          C550   1.366       .  A
C2          N549   1.360       .  A
C2            C3   1.380       .  A
C2         C1081   1.473       .  S
C3            C4   1.366       .  A
C3            H6   1.083       .  S
C4            C5   1.381       .  A
C4            H7   1.083       .  S
C5          N549   1.361       .  A
C5         C1070   1.476       .  S
N8          C433   1.444       .  S
N8           C12   1.366       .  A
N8            C9   1.365       .  A
C9           C10   1.381       .  A
C9          C473   1.488       .  S
C10          C11   1.367       .  A
C10          H13   1.083       .  S
C11          C12   1.384       .  A
C11          H14   1.082       .  S
C12         C453   1.493       .  S
N15         C373   1.450       .  S
N15          C19   1.363       .  A
N15          C16   1.363       .  A
C16          C17   1.382       .  A
C16         C413   1.487       .  S
C17          C18   1.368       .  A
C17          H20   1.082       .  S
C18          C19   1.381       .  A
C18          H21   1.083       .  S
C19         C393   1.482       .  S
N22         C322   1.447       .  S
N22          C26   1.363       .  A
N22          C23   1.361       .  A
C23          C24   1.380       .  A
C23         C353   1.473       .  S
C24          C25   1.365       .  A
C24          H27   1.083       .  S
C25          C26   1.382       .  A
C25          H28   1.083       .  S
C26         C333   1.476       .  S
O29          C45   1.280       .  A
O29         Zn35   2.057       .  S
C30          C53   1.473       .  S
C30          O46   1.277       .  A
C30          O43   1.274       .  A
O31          C44   1.278   1_455  A
O31        Cd586   2.086       .  S
O32          C50   1.276   1_545  A
O32         Cd41   2.072       .  S
O33          C47   1.278       .  A
O33        Cd585   2.085       .  S
O34          C45   1.276       .  A
O34        Cd585   2.078   1_565  S
Zn35         O46   2.041       .  S
Zn35         O48   2.033       .  S
Zn35         O40   1.964       .  S
O36          C47   1.277       .  A
O36         Cd41   2.095   1_655  S
Cd37         O39   2.074       .  S
Cd37        O581   2.075   1_554  S
Cd37        O582   2.070   1_544  S
Cd37        O588   1.998   1_544  S
Cd38         O42   2.064   1_455  S
Cd38        O579   2.076   1_554  S
Cd38        O599   2.070       .  S
Cd38        O588   2.000   1_454  S
O39          C49   1.275   1_545  A
O40         Cd41   2.006   1_665  S
O40        Cd585   2.003   1_565  S
O40        Cd586   2.017   1_655  S
Cd41         O43   2.065   1_445  S
O42          C49   1.275       .  A
C44         C293   1.493       .  S
C44          O48   1.276       .  A
C45         C422   1.495       .  S
C47         C513   1.498       .  S
C49          C72   1.467       .  S
C50         C273   1.490       .  S
C50          O51   1.277       .  A
O51        Cd586   2.093       .  S
O52          C68   1.278       .  A
O52         Zn58   2.059       .  S
C53          O69   1.276       .  A
C53          O66   1.276       .  A
O54          C67   1.275       .  A
O54         Cd61   2.074   1_565  S
O55          C73   1.278       .  A
O55         Cd64   2.096   1_655  S
O56          C70   1.277       .  A
O56         Cd60   2.084       .  S
O57          C68   1.276       .  A
O57         Cd60   2.077   1_655  S
Zn58         O69   2.034       .  S
Zn58         O71   2.030       .  S
Zn58         O63   1.962       .  S
O59          C70   1.279       .  A
O59         Cd64   2.099   1_565  S
Cd60         O62   2.059   1_455  S
Cd60         O63   1.999   1_455  S
Cd61         O65   2.078       .  S
Cd61         O74   2.079       .  S
Cd61         O63   2.012   1_545  S
O62          C72   1.273       .  A
O63         Cd64   2.010   1_665  S
Cd64         O66   2.073   1_445  S
O65          C72   1.276   1_545  A
C67         C362   1.490       .  S
C67          O71   1.277       .  A
C68         C253   1.494       .  S
C70         C233   1.487       .  S
C73         C462   1.497       .  S
C73          O74   1.276       .  A
N75         C493   1.445       .  S
N75          C79   1.364       .  A
N75          C76   1.360       .  A
C76          C77   1.381       .  A
C76         C213   1.484       .  S
C77          C78   1.368       .  A
C77          H80   1.082       .  S
C78          C79   1.384       .  A
C78          H81   1.082       .  S
C79         C302   1.488       .  S
N82         C442   1.452       .  S
N82          C86   1.367       .  A
N82          C83   1.365       .  A
C83          C84   1.378       .  A
C83         C202   1.480       .  S
C84          C85   1.365       .  A
C84          H87   1.083       .  S
C85          C86   1.381       .  A
C85          H88   1.083       .  S
C86         C262   1.480       .  S
N89         C382   1.443       .  S
N89          C93   1.359       .  A
N89          C90   1.360       .  A
C90          C91   1.381       .  A
C90         C282   1.475       .  S
C91          C92   1.368       .  A
C91          H94   1.083       .  S
C92          C93   1.380       .  A
C92          H95   1.082       .  S
C93         C173   1.474       .  S
N96         C313   1.445       .  S
N96         C100   1.365       .  A
N96          C97   1.362       .  A
C97          C98   1.379       .  A
C97         C242   1.479       .  S
C98          C99   1.367       .  A
C98         H101   1.083       .  S
C99         C100   1.384       .  A
C99         H102   1.082       .  S
C100        C162   1.490       .  S
O103        C119   1.273       .  A
O103       Zn109   2.011       .  S
C104        C182   1.489       .  S
C104        O120   1.275       .  A
C104        O117   1.275       .  A
O105        C118   1.277       .  A
O105       Cd660   2.088       .  S
O106        C124   1.275       .  A
O106       Cd115   2.073       .  S
O107        C121   1.278       .  A
O107       Cd111   2.101       .  S
O108        C119   1.277       .  A
O108       Cd111   2.083       .  S
Zn109       O120   2.014       .  S
Zn109       O122   2.026       .  S
Zn109       O114   1.949       .  S
O110        C121   1.278       .  A
O110       Cd663   2.084       .  S
Cd111       O113   2.089       .  S
Cd111       O114   2.012       .  S
Cd112       O125   2.067       .  S
Cd112       O653   2.072   1_554  S
Cd112       O664   2.080   1_554  S
Cd112       O662   2.005   1_554  S
O113        C123   1.279       .  A
O114       Cd660   2.011       .  S
O114       Cd663   2.007       .  S
Cd115       O658   2.075   1_554  S
Cd115       O665   2.078   1_554  S
Cd115       O662   2.006   1_554  S
O116        C123   1.277       .  A
O116       Cd660   2.084       .  S
O117       Cd663   2.086       .  S
C118        C222   1.493       .  S
C118        O122   1.275       .  A
C119        C142   1.469       .  S
C121        C542   1.497       .  S
C123        C402   1.488       .  S
C124        C147   1.468       .  S
C124        O125   1.275       .  A
O126        C142   1.274       .  A
O126       Zn132   2.011       .  S
C127        C482   1.493       .  S
C127        O143   1.275       .  A
C127        O140   1.277       .  A
O128        C141   1.277       .  A
O128       Cd135   2.089       .  S
O129        C147   1.276       .  A
O129       Cd138   2.076       .  S
O130        C144   1.279       .  A
O130       Cd134   2.100       .  S
O131        C142   1.278       .  A
O131       Cd134   2.080       .  S
Zn132       O143   2.029       .  S
Zn132       O145   2.029       .  S
Zn132       O137   1.951       .  S
O133        C144   1.276       .  A
O133       Cd138   2.080       .  S
Cd134       O136   2.095       .  S
Cd134       O137   2.011       .  S
Cd135       O139   2.085       .  S
Cd135       O148   2.067       .  S
Cd135       O137   2.005       .  S
O136        C146   1.277       .  A
O137       Cd138   2.006       .  S
Cd138       O140   2.084       .  S
O139        C146   1.278       .  A
C141        C342   1.494       .  S
C141        O145   1.276       .  A
C144        C153   1.497       .  S
C146        C193   1.494       .  S
C147        O148   1.275       .  A
C149        C150   1.407       .  A
C149        C154   1.403       .  A
C149        H159   1.083       .  S
C150        C151   1.409       .  A
C150        C155   1.497       .  S
C151        C152   1.403       .  A
C151        F156   1.358       .  S
C152        C153   1.410       .  A
C152        H157   1.083       .  S
C153        C154   1.411       .  A
C154        F158   1.357       .  S
C155        C160   1.412       .  A
C155        C164   1.404       .  A
C160        C161   1.407       .  A
C160        F165   1.357       .  S
C161        C162   1.405       .  A
C161        H166   1.083       .  S
C162        C163   1.408       .  A
C163        C164   1.397       .  A
C163        F167   1.354       .  S
C164        H168   1.083       .  S
C169        C170   1.406       .  A
C169        C174   1.403       .  A
C169        H727   1.083       .  S
C170        C171   1.408       .  A
C170        C175   1.488       .  S
C171        C172   1.397       .  A
C171        F176   1.358       .  S
C172        C173   1.401       .  A
C172        H177   1.084       .  S
C173        C174   1.405       .  A
C174        F726   1.357       .  S
C175        C180   1.408       .  A
C175        C184   1.406       .  A
F178        C722   1.357       .  S
H179        C717   1.083       .  S
C180        C181   1.394       .  A
C180        F185   1.358       .  S
C181        C182   1.405       .  A
C181        H186   1.083       .  S
C182        C183   1.412       .  A
C183        C184   1.406       .  A
C183        F187   1.357       .  S
C184        H188   1.083       .  S
C189        C190   1.405       .  A
C189        C194   1.407       .  A
C189        H199   1.084       .  S
C190        C191   1.408       .  A
C190        C195   1.491       .  S
C191        C192   1.398       .  A
C191        F196   1.358       .  S
C192        C193   1.406       .  A
C192        H197   1.083       .  S
C193        C194   1.414       .  A
C194        F198   1.357       .  S
C195        C200   1.408       .  A
C195        C204   1.406       .  A
C200        C201   1.400       .  A
C200        F205   1.357       .  S
C201        C202   1.403       .  A
C201        H206   1.083       .  S
C202        C203   1.405       .  A
C203        C204   1.404       .  A
C203        F207   1.357       .  S
C204        H208   1.083       .  S
C209        C210   1.407       .  A
C209        C214   1.398       .  A
C209        H219   1.083       .  S
C210        C211   1.412       .  A
C210        C215   1.497       .  S
C211        C212   1.403       .  A
C211        F764   1.357       .  S
C212        C213   1.403       .  A
C212        H765   1.083       .  S
C213        C214   1.405       .  A
C214        F218   1.356       .  S
C215        C220   1.410       .  A
C215        C224   1.407       .  A
F216        C759   1.357   1_554  S
H217        C760   1.083       .  S
C220        C221   1.402       .  A
C220        F225   1.357       .  S
C221        C222   1.409       .  A
C221        H226   1.083       .  S
C222        C223   1.409       .  A
C223        C224   1.400       .  A
C223        F775   1.357       .  S
C224        H228   1.083       .  S
F227        C771   1.357   1_554  S
C229        C230   1.408       .  A
C229        C234   1.401       .  A
C229        H239   1.082       .  S
C230        C231   1.412       .  A
C230        C235   1.499       .  S
C231        C232   1.405       .  A
C231        F236   1.357       .  S
C232        C233   1.405       .  A
C232        H237   1.083       .  S
C233        C234   1.407       .  A
C234        F238   1.358       .  S
C235        C240   1.413       .  A
C235        C244   1.407   1_565  A
C240        C241   1.405   1_565  A
C240        F245   1.357       .  S
C241        C242   1.402       .  A
C241        H246   1.083   1_545  S
C242        C243   1.405       .  A
C243        C244   1.400       .  A
C243        F247   1.358       .  S
C244        H248   1.082       .  S
C249        C250   1.407       .  A
C249        C254   1.407       .  A
C249        H259   1.084       .  S
C250        C251   1.407       .  A
C250        C255   1.493       .  S
C251        C252   1.400       .  A
C251        F256   1.358   1_655  S
C252        C253   1.407       .  A
C252        H257   1.083       .  S
C253        C254   1.411       .  A
C254        F258   1.357       .  S
C255        C260   1.407   1_655  A
C255        C264   1.408       .  A
C260        C261   1.401       .  A
C260        F265   1.357       .  S
C261        C262   1.405       .  A
C261        H266   1.084       .  S
C262        C263   1.406   1_455  A
C263        C264   1.404       .  A
C263        F267   1.357       .  S
C264        H268   1.083       .  S
C269        C274   1.403       .  A
C269        C818   1.403       .  A
C269        H279   1.084       .  S
C270        C271   1.408   1_565  A
C270        C817   1.407       .  A
C270        C275   1.492   1_565  S
C271        C272   1.397   1_545  A
C271        F276   1.358       .  S
C272        C273   1.406       .  A
C272        H277   1.084   1_565  S
C273        C822   1.411       .  A
C274        C821   1.414   1_554  A
C274        F278   1.357       .  S
C275        C280   1.409       .  A
C275        C284   1.407   1_545  A
C280        C281   1.401       .  A
C280        F833   1.357       .  S
C281        C282   1.403       .  A
C281        H286   1.084       .  S
C282        C283   1.405       .  A
C283        C284   1.401   1_545  A
C283        F287   1.358       .  S
C284        H288   1.084       .  S
F285        C828   1.358       .  S
C289        C290   1.406       .  A
C289        C294   1.403       .  A
C289        H299   1.083       .  S
C290        C291   1.410   1_655  A
C290        C295   1.494   1_655  S
C291        C292   1.400       .  A
C291        F296   1.357       .  S
C292        C293   1.406   1_455  A
C292        H297   1.083       .  S
C293        C294   1.412       .  A
C294        F298   1.357       .  S
C295        C300   1.409       .  A
C295        C304   1.406       .  A
C300        C301   1.401       .  A
C300        F305   1.357       .  S
C301        C302   1.404       .  A
C301        H306   1.079       .  S
C302        C303   1.409       .  A
C303        C304   1.401       .  A
C303        F307   1.357       .  S
C304        H308   1.083   1_455  S
C309        C310   1.409       .  A
C309        C314   1.406   1_565  A
C309        H319   1.083       .  S
C310        C311   1.408   1_565  A
C310        C315   1.496       .  S
C311        C312   1.401       .  A
C311        F316   1.356       .  S
C312        C313   1.406       .  A
C312        H317   1.083       .  S
C313        C314   1.405       .  A
C314        F318   1.356       .  S
C315        C320   1.408       .  A
C315        C324   1.409       .  A
C320        C321   1.402       .  A
C320        F325   1.357       .  S
C321        C322   1.405       .  A
C321        H326   1.080       .  S
C322        C323   1.407       .  A
C323        C324   1.405       .  A
C323        F327   1.357       .  S
C324        H328   1.082       .  S
C329        C330   1.404       .  A
C329        C334   1.399       .  A
C329        H339   1.083       .  S
C330        C331   1.410       .  A
C330        C335   1.489       .  S
C331        C332   1.404       .  A
C331        F336   1.357       .  S
C332        C333   1.402       .  A
C332        H337   1.083       .  S
C333        C334   1.406       .  A
C334        F338   1.357       .  S
C335        C340   1.407       .  A
C335        C344   1.404       .  A
C340        C341   1.405       .  A
C340        F345   1.357       .  S
C341        C342   1.410       .  A
C341        H346   1.083       .  S
C342        C343   1.411       .  A
C343        C344   1.399       .  A
C343        F347   1.357       .  S
C344        H348   1.084       .  S
C349        C350   1.406       .  A
C349        C354   1.398       .  A
C349        H359   1.083       .  S
C350        C351   1.409       .  A
C350        C355   1.490       .  S
C351        C352   1.401       .  A
C351        F356   1.357       .  S
C352        C353   1.404       .  A
C352        H357   1.084       .  S
C353        C354   1.404       .  A
C354        F358   1.357       .  S
C355        C360   1.407       .  A
C355        C364   1.405       .  A
C360        C361   1.404       .  A
C360        F365   1.357   1_565  S
C361        C362   1.411       .  A
C361        H366   1.083   1_565  S
C362        C363   1.409       .  A
C363        C364   1.395       .  A
C363        F367   1.357       .  S
C364        H368   1.084       .  S
C369        C370   1.402       .  A
C369        C374   1.403       .  A
C369        H927   1.084       .  S
C370        C371   1.408       .  A
C370        C375   1.489       .  S
C371        C372   1.403       .  A
C371        F376   1.357       .  S
C372        C373   1.404       .  A
C372        H377   1.081       .  S
C373        C374   1.413       .  A
C374        F926   1.357       .  S
C375        C380   1.410   1_565  A
C375        C384   1.403   1_565  A
F378        C922   1.357       .  S
H379        C917   1.081       .  S
C380        C381   1.406       .  A
C380        F385   1.357   1_545  S
C381        C382   1.404       .  A
C381        H386   1.084       .  S
C382        C383   1.407       .  A
C383        C384   1.399       .  A
C383        F387   1.357       .  S
C384        H388   1.085       .  S
C389        C390   1.407       .  A
C389        C394   1.400       .  A
C389        H399   1.083       .  S
C390        C939   1.410       .  A
C390        C395   1.494       .  S
C391        C938   1.411   1_554  A
C391        C940   1.401       .  A
C391        F396   1.357       .  S
C392        C393   1.405       .  A
C392        C939   1.403       .  A
C392        H945   1.084       .  S
C393        C394   1.406       .  A
C394        F398   1.358       .  S
C395        C400   1.409       .  A
C395        C404   1.407       .  A
H397        C940   1.082       .  S
C400        C401   1.405       .  A
C400        F405   1.357       .  S
C401        C402   1.409       .  A
C401        H406   1.083       .  S
C402        C403   1.407       .  A
C403        C404   1.398       .  A
C403        F407   1.357       .  S
C404        H408   1.084       .  S
C409        C410   1.408       .  A
C409        C414   1.405       .  A
C409        H419   1.083       .  S
C410        C411   1.408       .  A
C410        C415   1.494       .  S
C411        C412   1.400       .  A
C411        F964   1.357       .  S
C412        C413   1.406       .  A
C412        H965   1.084       .  S
C413        C414   1.407       .  A
C414        F418   1.357       .  S
C415        C420   1.409       .  A
C415        C424   1.405       .  A
F416        C959   1.358       .  S
H417        C960   1.084       .  S
C420        C421   1.403       .  A
C420        F425   1.357       .  S
C421        C422   1.407       .  A
C421        H426   1.083       .  S
C422        C423   1.413       .  A
C423        C424   1.403       .  A
C423        F427   1.357   1_565  S
C424        H428   1.083   1_565  S
C429        C430   1.410       .  A
C429        C434   1.404       .  A
C429        H439   1.082       .  S
C430        C431   1.407       .  A
C430        C435   1.501       .  S
C431        C432   1.400       .  A
C431        F436   1.351       .  S
C432        C433   1.403       .  A
C432        H437   1.083       .  S
C433        C434   1.406       .  A
C434        F438   1.354       .  S
C435        C440   1.407   1_655  A
C435        C444   1.412       .  A
C440        C441   1.397       .  A
C440        F445   1.357       .  S
C441        C442   1.407       .  A
C441        H446   1.082       .  S
C442        C443   1.409       .  A
C443        C444   1.407   1_455  A
C443        F447   1.355       .  S
C444        H448   1.083       .  S
C449        C450   1.406       .  A
C449        C454   1.400       .  A
C449        H459   1.082       .  S
C450        C451   1.412       .  A
C450        C455   1.499       .  S
C451        C452   1.405       .  A
C451        F456   1.357       .  S
C452        C453   1.404       .  A
C452        H457   1.078       .  S
C453        C454   1.410       .  A
C454        F458   1.356       .  S
C455        C460   1.411       .  A
C455        C464   1.407       .  A
C460        C461   1.405       .  A
C460        F465   1.357   1_655  S
C461        C462   1.409       .  A
C461        H466   1.083   1_655  S
C462        C463   1.412       .  A
C463        C464   1.400       .  A
C463        F467   1.357       .  S
C464        H468   1.083       .  S
C469        C470   1.408       .  A
C469        C474   1.399       .  A
C469        H479   1.083       .  S
C470        C471   1.411       .  A
C470        C475   1.499       .  S
C471        C472   1.403       .  A
C471        F476   1.356       .  S
C472        C473   1.407       .  A
C472        H477   1.083       .  S
C473        C474   1.404       .  A
C474        F478   1.353       .  S
C475        C480   1.410       .  A
C475        C484   1.408       .  A
C480        C481   1.405       .  A
C480        F485   1.357       .  S
C481        C482   1.410       .  A
C481        H486   1.083       .  S
C482        C483   1.408       .  A
C483        C484   1.397       .  A
C483        F487   1.357       .  S
C484        H488   1.083       .  S
C489        C490   1.402   1_455  A
C489        C494   1.396       .  A
C489        H499   1.079   1_455  S
C490        C491   1.412   1_655  A
C490        C495   1.497       .  S
C491        C492   1.408       .  A
C491       F1044   1.357   1_455  S
C492        C493   1.405       .  A
C492       H1045   1.080       .  S
C493        C494   1.405       .  A
C494        F498   1.357       .  S
C495        C500   1.412       .  A
C495       C1052   1.405       .  A
F496       C1039   1.357   1_655  S
H497       C1040   1.080       .  S
C500        C501   1.403       .  A
C500        F505   1.357       .  S
C501        C502   1.404       .  A
C501        H506   1.081       .  S
C502       C1051   1.410       .  A
C503        C504   1.399       .  A
C503       C1050   1.406       .  A
C503        F507   1.356   1_556  S
C504       C1043   1.405       .  A
C504        H508   1.083       .  S
C509        C510   1.405       .  A
C509        C514   1.408       .  A
C509        H519   1.084       .  S
C510        C511   1.408       .  A
C510        C515   1.493       .  S
C511        C512   1.399       .  A
C511       F1064   1.358       .  S
C512        C513   1.407       .  A
C512        H517   1.083       .  S
C513        C514   1.415       .  A
C514        F518   1.357   1_655  S
C515        C524   1.407       .  A
C515       C1068   1.407       .  A
F516       C1059   1.358   1_554  S
C520        C521   1.396       .  A
C520       C1063   1.408   1_554  A
C520        F525   1.358       .  S
C521       C1070   1.402   1_554  A
C521        H526   1.083       .  S
C522        C523   1.406       .  A
C522       C1069   1.405       .  A
C522        C553   1.482       .  S
C523        C524   1.407       .  A
C523        F527   1.357       .  S
C524        H528   1.083       .  S
C529        C534   1.400       .  A
C529       C1078   1.406       .  A
C529        H539   1.083   1_556  S
C530        C531   1.408       .  A
C530       C1077   1.407       .  A
C530        C535   1.495       .  S
C531        C532   1.404       .  A
C531        F536   1.356       .  S
C532        C533   1.406       .  A
C532        H537   1.083       .  S
C533       C1082   1.405       .  A
C533        C550   1.480       .  S
C534       C1081   1.404       .  A
C534        F538   1.358   1_556  S
C535        C540   1.408       .  A
C535        C544   1.407       .  A
C540        C541   1.397       .  A
C540        F545   1.358       .  S
C541        C542   1.406       .  A
C541        H546   1.083       .  S
C542        C543   1.414       .  A
C543        C544   1.409       .  A
C543        F547   1.357       .  S
C544       H1096   1.083       .  S
H548       C1092   1.084       .  S
N549       C1050   1.443       .  S
C550        C551   1.380       .  A
C551        C552   1.365       .  A
C551        H554   1.083       .  S
C552        C553   1.381       .  A
C552        H555   1.083       .  S
N556        C981   1.447       .  S
N556        C560   1.364       .  A
N556        C557   1.364       .  A
C557        C558   1.380       .  A
C557       C1021   1.483       .  S
C558        C559   1.368       .  A
C558        H561   1.083       .  S
C559        C560   1.384       .  A
C559        H562   1.082       .  S
C560       C1001   1.492       .  S
N563        C921   1.447       .  S
N563        C567   1.361       .  A
N563        C564   1.362       .  A
C564        C565   1.382       .  A
C564        C961   1.482       .  S
C565        C566   1.367       .  A
C565        H568   1.082       .  S
C566        C567   1.381       .  A
C566        H569   1.083       .  S
C567        C941   1.477       .  S
N570        C870   1.445       .  S
N570        C574   1.361       .  A
N570        C571   1.361       .  A
C571        C572   1.381       .  A
C571        C901   1.473       .  S
C572        C573   1.366       .  A
C572        H575   1.082       .  S
C573        C574   1.380       .  A
C573        H576   1.082       .  S
C574        C881   1.474       .  S
O577        C593   1.278       .  A
O577       Zn583   2.045       .  S
C578        C601   1.468       .  S
C578        O594   1.276       .  A
C578        O591   1.276   1_655  A
O579        C592   1.275   1_455  A
O580        C598   1.278   1_545  A
O580       Cd589   2.089       .  S
O581        C595   1.277       .  A
O582        C593   1.275       .  A
Zn583       O594   2.021       .  S
Zn583       O596   2.038       .  S
Zn583       O588   1.954       .  S
O584        C595   1.277       .  A
O584       Cd589   2.093   1_655  S
Cd585       O587   2.077   1_545  S
Cd586       O590   2.085   1_455  S
O587        C597   1.276       .  A
O588       Cd589   2.010   1_665  S
Cd589       O591   2.073   1_545  S
O590        C597   1.278       .  A
C592        C841   1.490       .  S
C592        O596   1.276       .  A
C593        C970   1.493       .  S
C595       C1061   1.494       .  S
C597        C620   1.474       .  S
C598        C821   1.491       .  S
C598        O599   1.274   1_556  A
O600        C616   1.276       .  A
O600       Zn606   2.042       .  S
C601        O617   1.275       .  A
C601        O614   1.275   1_655  A
O602        C615   1.276       .  A
O602       Cd609   2.082   1_565  S
O603        C621   1.278       .  A
O603       Cd612   2.089   1_655  S
O604        C618   1.278       .  A
O604       Cd608   2.086       .  S
O605        C616   1.279   1_455  A
O605       Cd608   2.096       .  S
Zn606       O617   2.018       .  S
Zn606       O619   2.028       .  S
Zn606       O611   1.956       .  S
O607        C618   1.277       .  A
O607       Cd612   2.088   1_565  S
Cd608       O610   2.079   1_455  S
Cd608       O611   2.006   1_455  S
Cd609       O613   2.080   1_545  S
Cd609       O622   2.090       .  S
Cd609       O611   2.011   1_545  S
O610        C620   1.276       .  A
O611       Cd612   2.013   1_665  S
Cd612       O614   2.072   1_545  S
O613        C620   1.277       .  A
C615        C910   1.492       .  S
C615        O619   1.276       .  A
C616        C801   1.497       .  S
C618        C781   1.483       .  S
C621       C1010   1.497       .  S
C621        O622   1.277       .  A
N623       C1041   1.444       .  S
N623        C627   1.360       .  A
N623        C624   1.359       .  A
C624        C625   1.382       .  A
C624        C761   1.482       .  S
C625        C626   1.369       .  A
C625        H628   1.082       .  S
C626        C627   1.383       .  A
C626        H629   1.083       .  S
C627        C850   1.481       .  S
N630        C990   1.445       .  S
N630        C634   1.363       .  A
N630        C631   1.361       .  A
C631        C632   1.380       .  A
C631        C750   1.476       .  S
C632        C633   1.367       .  A
C632        H635   1.082       .  S
C633        C634   1.382       .  A
C633        H636   1.083       .  S
C634        C810   1.477       .  S
N637        C930   1.447       .  S
N637        C641   1.363       .  A
N637        C638   1.363       .  A
C638        C639   1.379       .  A
C638        C830   1.477       .  S
C639        C640   1.364       .  A
C639        H642   1.082       .  S
C640        C641   1.381       .  A
C640        H643   1.082       .  S
C641        C721   1.477       .  S
N644        C861   1.447       .  S
N644        C648   1.362       .  A
N644        C645   1.361       .  A
C645        C646   1.381       .  A
C645        C790   1.479       .  S
C646        C647   1.368       .  A
C646        H649   1.083       .  S
C647        C648   1.382       .  A
C647        H650   1.082       .  S
C648        C710   1.485       .  S
O651        C667   1.278       .  A
O651       Zn657   2.043       .  S
C652        C730   1.485       .  S
C652        O668   1.278       .  A
C652        O665   1.275       .  A
O653        C666   1.275       .  A
O654        C672   1.276       .  A
O654       Cd663   2.073       .  S
O655        C669   1.276       .  A
O655       Cd659   2.089       .  S
O656        C667   1.276       .  A
O656       Cd659   2.065       .  S
Zn657       O668   2.044       .  S
Zn657       O670   2.039       .  S
Zn657       O662   1.959       .  S
O658        C669   1.276       .  A
Cd659       O661   2.081       .  S
Cd659       O662   2.003       .  S
Cd660       O673   2.092       .  S
O661        C671   1.276       .  A
O664        C671   1.276       .  A
C666        C770   1.491       .  S
C666        O670   1.277       .  A
C667        C690   1.472       .  S
C669       C1090   1.493       .  S
C671        C950   1.489       .  S
C672        C695   1.476       .  S
C672        O673   1.279       .  A
O674        C690   1.275       .  A
O674       Zn680   2.015       .  S
C675       C1030   1.493       .  S
C675        O691   1.277       .  A
C675        O688   1.277       .  A
O676        C689   1.277       .  A
O676       Cd683   2.083       .  S
O677        C695   1.278       .  A
O677       Cd686   2.086       .  S
O678        C692   1.276       .  A
O678       Cd682   2.081       .  S
O679        C690   1.276       .  A
O679       Cd682   2.086       .  S
Zn680       O691   2.047       .  S
Zn680       O693   2.034       .  S
Zn680       O685   1.953       .  S
O681        C692   1.277       .  A
O681       Cd686   2.082       .  S
Cd682       O684   2.082       .  S
Cd682       O685   2.016       .  S
Cd683       O687   2.077       .  S
Cd683       O696   2.080       .  S
Cd683       O685   2.007       .  S
O684        C694   1.276       .  A
O685       Cd686   2.002       .  S
Cd686       O688   2.079       .  S
O687        C694   1.277       .  A
C689        C890   1.492       .  S
C689        O693   1.277       .  A
C692        C701   1.490       .  S
C694        C741   1.491       .  S
C695        O696   1.276       .  A
C697        C698   1.406       .  A
C697        C702   1.400       .  A
C697        H707   1.083       .  S
C698        C699   1.407       .  A
C698        C703   1.491       .  S
C699        C700   1.402       .  A
C699        F704   1.357       .  S
C700        C701   1.408       .  A
C700        H705   1.083       .  S
C701        C702   1.410       .  A
C702        F706   1.358       .  S
C703        C708   1.410       .  A
C703        C712   1.405       .  A
C708        C709   1.403       .  A
C708        F713   1.357       .  S
C709        C710   1.405       .  A
C709        H714   1.083       .  S
C710        C711   1.407       .  A
C711        C712   1.399       .  A
C711        F715   1.357       .  S
C712        H716   1.083       .  S
C717        C718   1.407   1_554  A
C717        C722   1.406       .  A
C718        C719   1.406       .  A
C718        C723   1.489       .  S
C719        C720   1.397       .  A
C719        F724   1.358       .  S
C720        C721   1.403   1_556  A
C720        H725   1.084       .  S
C721        C722   1.406       .  A
C723        C728   1.409       .  A
C723        C732   1.404       .  A
C728        C729   1.397       .  A
C728        F733   1.358       .  S
C729        C730   1.402       .  A
C729        H734   1.085       .  S
C730        C731   1.411       .  A
C731        C732   1.406       .  A
C731        F735   1.357       .  S
C732        H736   1.085       .  S
C737        C738   1.404       .  A
C737        C742   1.405       .  A
C737        H747   1.084       .  S
C738        C739   1.407       .  A
C738        C743   1.486       .  S
C739        C740   1.395       .  A
C739        F744   1.358       .  S
C740        C741   1.406       .  A
C740        H745   1.083       .  S
C741        C742   1.414       .  A
C742        F746   1.357       .  S
C743        C748   1.407       .  A
C743        C752   1.406       .  A
C748        C749   1.399       .  A
C748        F753   1.358       .  S
C749        C750   1.403       .  A
C749        H754   1.084       .  S
C750        C751   1.405       .  A
C751        C752   1.401       .  A
C751        F755   1.357       .  S
C752        H756   1.083       .  S
C757        C758   1.406       .  A
C757        C762   1.398       .  A
C757        H767   1.083       .  S
C758        C759   1.410       .  A
C758        C763   1.491       .  S
C759        C760   1.402       .  A
C760        C761   1.404       .  A
C761        C762   1.405       .  A
C762        F766   1.357       .  S
C763        C768   1.408       .  A
C763        C772   1.405       .  A
C768        C769   1.402       .  A
C768        F773   1.357       .  S
C769        C770   1.408       .  A
C769        H774   1.083       .  S
C770        C771   1.411       .  A
C771        C772   1.399       .  A
C772        H776   1.083       .  S
C777        C778   1.407       .  A
C777        C782   1.398       .  A
C777        H787   1.083       .  S
C778        C779   1.411       .  A
C778        C783   1.496   1_565  S
C779        C780   1.406       .  A
C779        F784   1.357       .  S
C780        C781   1.405       .  A
C780        H785   1.083       .  S
C781        C782   1.405       .  A
C782        F786   1.358       .  S
C783        C788   1.412   1_545  A
C783        C792   1.407       .  A
C788        C789   1.402   1_565  A
C788        F793   1.357       .  S
C789        C790   1.402       .  A
C789        H794   1.083   1_545  S
C790        C791   1.406       .  A
C791        C792   1.401       .  A
C791        F795   1.358       .  S
C792        H796   1.082       .  S
C797        C798   1.404       .  A
C797        C802   1.407       .  A
C797        H807   1.084       .  S
C798        C799   1.406   1_655  A
C798        C803   1.489       .  S
C799        C800   1.400       .  A
C799        F804   1.358       .  S
C800        C801   1.407   1_455  A
C800        H805   1.083       .  S
C801        C802   1.415       .  A
C802        F806   1.357       .  S
C803        C808   1.406   1_655  A
C803        C812   1.406       .  A
C808        C809   1.403       .  A
C808        F813   1.358       .  S
C809        C810   1.406       .  A
C809        H814   1.084       .  S
C810        C811   1.405   1_455  A
C811        C812   1.403       .  A
C811        F815   1.357       .  S
C812        H816   1.084       .  S
C817        C822   1.405       .  A
C817        H827   1.084       .  S
C818        C819   1.407   1_564  A
C818        C823   1.486   1_565  S
C819        C820   1.398       .  A
C819        F824   1.358       .  S
C820        C821   1.406   1_545  A
C820        H825   1.084       .  S
C822        F826   1.357       .  S
C823        C828   1.406       .  A
C823        C832   1.406   1_554  A
C828        C829   1.399       .  A
C829        C830   1.405       .  A
C829        H834   1.083       .  S
C830        C831   1.405   1_554  A
C831        C832   1.401       .  A
C831        F835   1.357       .  S
C832        H836   1.084       .  S
C837        C838   1.406   1_655  A
C837        C842   1.402       .  A
C837        H847   1.084       .  S
C838        C839   1.410       .  A
C838        C843   1.494       .  S
C839        C840   1.400       .  A
C839        F844   1.357       .  S
C840        C841   1.406   1_455  A
C840        H845   1.084       .  S
C841        C842   1.410       .  A
C842        F846   1.357       .  S
C843        C848   1.410       .  A
C843        C852   1.407       .  A
C848        C849   1.403       .  A
C848        F853   1.357   1_556  S
C849        C850   1.405       .  A
C849        H854   1.082       .  S
C850        C851   1.405       .  A
C851        C852   1.399       .  A
C851        F855   1.357       .  S
C852        H856   1.083   1_455  S
C857        C858   1.409       .  A
C857        C862   1.409   1_565  A
C857        H867   1.083       .  S
C858        C859   1.406   1_565  A
C858        C863   1.493       .  S
C859        C860   1.398       .  A
C859        F864   1.358       .  S
C860        C861   1.407       .  A
C860        H865   1.083       .  S
C861        C862   1.407       .  A
C862        F866   1.355       .  S
C863        C868   1.409       .  A
C863        C872   1.406       .  A
C868        C869   1.407       .  A
C868        F873   1.357       .  S
C869        C870   1.406       .  A
C869        H874   1.081       .  S
C870        C871   1.404       .  A
C871        C872   1.399       .  A
C871        F875   1.356       .  S
C872        H876   1.083       .  S
C877        C878   1.406       .  A
C877        C882   1.398       .  A
C877        H887   1.083       .  S
C878        C879   1.410       .  A
C878        C883   1.492       .  S
C879        C880   1.403       .  A
C879        F884   1.357       .  S
C880        C881   1.403       .  A
C880        H885   1.083       .  S
C881        C882   1.405       .  A
C882        F886   1.358       .  S
C883        C888   1.408       .  A
C883        C892   1.406       .  A
C888        C889   1.402       .  A
C888        F893   1.357       .  S
C889        C890   1.409       .  A
C889        H894   1.083       .  S
C890        C891   1.410       .  A
C891        C892   1.399       .  A
C891        F895   1.357       .  S
C892        H896   1.083       .  S
C897        C898   1.407       .  A
C897        C902   1.401       .  A
C897        H907   1.084       .  S
C898        C899   1.409       .  A
C898        C903   1.490       .  S
C899        C900   1.399       .  A
C899        F904   1.357       .  S
C900        C901   1.403       .  A
C900        H905   1.084       .  S
C901        C902   1.405       .  A
C902        F906   1.357       .  S
C903        C908   1.406       .  A
C903        C912   1.405       .  A
C908        C909   1.402       .  A
C908        F913   1.357       .  S
C909        C910   1.409       .  A
C909        H914   1.083   1_565  S
C910        C911   1.411       .  A
C911        C912   1.399       .  A
C911        F915   1.358       .  S
C912        H916   1.084       .  S
C917        C918   1.405       .  A
C917        C922   1.401       .  A
C918        C919   1.407   1_554  A
C918        C923   1.491       .  S
C919        C920   1.405       .  A
C919        F924   1.357       .  S
C920        C921   1.405   1_556  A
C920        H925   1.078       .  S
C921        C922   1.409       .  A
C923        C928   1.406       .  A
C923        C932   1.407   1_564  A
C928        C929   1.399   1_565  A
C928        F933   1.357       .  S
C929        C930   1.406       .  A
C929        H934   1.082       .  S
C930        C931   1.407   1_554  A
C931        C932   1.407       .  A
C931        F935   1.355       .  S
C932        H936   1.082       .  S
C937        C938   1.407       .  A
C937        C942   1.399       .  A
C937        H947   1.083       .  S
C938        C943   1.493       .  S
C939        F944   1.357       .  S
C940        C941   1.404       .  A
C941        C942   1.404   1_554  A
C942        F946   1.357       .  S
C943        C948   1.408       .  A
C943        C952   1.407       .  A
C948        C949   1.404       .  A
C948        F953   1.357   1_556  S
C949        C950   1.409       .  A
C949        H954   1.083   1_556  S
C950        C951   1.408       .  A
C951        C952   1.397       .  A
C951        F955   1.357       .  S
C952        H956   1.084       .  S
C957        C958   1.408   1_556  A
C957        C962   1.406       .  A
C957        H967   1.083       .  S
C958        C959   1.408       .  A
C958        C963   1.491   1_554  S
C959        C960   1.396       .  A
C960        C961   1.403       .  A
C961        C962   1.407   1_554  A
C962        F966   1.357       .  S
C963        C968   1.409       .  A
C963        C972   1.403   1_556  A
C968        C969   1.403       .  A
C968        F973   1.357       .  S
C969        C970   1.409       .  A
C969        H974   1.083       .  S
C970        C971   1.412   1_556  A
C971        C972   1.399       .  A
C971        F975   1.357   1_565  S
C972        H976   1.084       .  S
C977        C978   1.410       .  A
C977        C982   1.403       .  A
C977        H987   1.083       .  S
C978        C979   1.408       .  A
C978        C983   1.499       .  S
C979        C980   1.403       .  A
C979        F984   1.355       .  S
C980        C981   1.407       .  A
C980        H985   1.083       .  S
C981        C982   1.403       .  A
C982        F986   1.353       .  S
C983        C988   1.408       .  A
C983        C992   1.413       .  A
C988        C989   1.397   1_655  A
C988        F993   1.357       .  S
C989        C990   1.404       .  A
C989        H994   1.083       .  S
C990        C991   1.405       .  A
C991        C992   1.410   1_455  A
C991        F995   1.356       .  S
C992        H996   1.083       .  S
C997        C998   1.404       .  A
C997       C1002   1.396       .  A
C997       H1007   1.083       .  S
C998        C999   1.413       .  A
C998       C1003   1.498       .  S
C999       C1000   1.409       .  A
C999       F1004   1.357       .  S
C1000      C1001   1.406       .  A
C1000      H1005   1.083       .  S
C1001      C1002   1.407       .  A
C1002      F1006   1.353       .  S
C1003      C1008   1.409       .  A
C1003      C1012   1.407       .  A
C1008      C1009   1.402       .  A
C1008      F1013   1.358   1_655  S
C1009      C1010   1.408       .  A
C1009      H1014   1.083   1_655  S
C1010      C1011   1.412       .  A
C1011      C1012   1.404       .  A
C1011      F1015   1.357       .  S
C1012      H1016   1.083       .  S
C1017      C1018   1.409       .  A
C1017      C1022   1.400       .  A
C1017      H1027   1.083       .  S
C1018      C1019   1.413       .  A
C1018      C1023   1.503       .  S
C1019      C1020   1.405       .  A
C1019      F1024   1.356       .  S
C1020      C1021   1.405       .  A
C1020      H1025   1.083       .  S
C1021      C1022   1.405       .  A
C1022      F1026   1.357       .  S
C1023      C1028   1.412       .  A
C1023      C1032   1.408       .  A
C1028      C1029   1.407       .  A
C1028      F1033   1.357       .  S
C1029      C1030   1.408       .  A
C1029      H1034   1.083       .  S
C1030      C1031   1.408       .  A
C1031      C1032   1.398       .  A
C1031      F1035   1.358       .  S
C1032      H1036   1.083       .  S
C1037      C1038   1.403   1_455  A
C1037      C1042   1.397       .  A
C1037      H1047   1.079       .  S
C1038      C1039   1.412   1_655  A
C1038      C1043   1.493       .  S
C1039      C1040   1.406       .  A
C1040      C1041   1.403       .  A
C1041      C1042   1.408       .  A
C1042      F1046   1.357       .  S
C1043      C1048   1.412       .  A
C1048      C1049   1.404       .  A
C1048      F1053   1.358       .  S
C1049      C1050   1.404       .  A
C1049      H1054   1.083       .  S
C1051      C1052   1.404       .  A
C1051      F1055   1.356       .  S
C1052      H1056   1.083       .  S
C1057      C1058   1.405       .  A
C1057      C1062   1.408       .  A
C1057      H1067   1.084   1_655  S
C1058      C1059   1.408       .  A
C1058      C1063   1.491       .  S
C1059      C1060   1.395       .  A
C1060      C1061   1.406       .  A
C1060      H1065   1.083   1_556  S
C1061      C1062   1.414       .  A
C1062      F1066   1.357   1_655  S
C1063      C1072   1.407       .  A
C1068      C1069   1.400       .  A
C1068      F1073   1.358       .  S
C1069      H1074   1.083       .  S
C1070      C1071   1.403       .  A
C1071      C1072   1.406       .  A
C1071      F1075   1.356       .  S
C1072      H1076   1.082       .  S
C1077      C1082   1.401       .  A
C1077      H1087   1.083       .  S
C1078      C1079   1.407       .  A
C1078      C1083   1.489       .  S
C1079      C1080   1.401       .  A
C1079      F1084   1.356       .  S
C1080      C1081   1.403       .  A
C1080      H1085   1.084       .  S
C1082      F1086   1.358       .  S
C1083      C1088   1.407       .  A
C1083      C1092   1.405       .  A
C1088      C1089   1.397       .  A
C1088      F1093   1.358   1_556  S
C1089      C1090   1.407       .  A
C1089      H1094   1.083   1_556  S
C1090      C1091   1.413       .  A
C1091      C1092   1.405       .  A
C1091      F1095   1.357       .  S
