geometry optimzed in LAMMPS
_audit_creation_date              2020-11-30 
_audit_creation_method            'lammps2cif' 
_symmetry_space_group_name_H-M    'P1' 
_symmetry_Int_Tables_number       1 
_symmetry_cell_setting            triclinic 
loop_ 
_symmetry_equiv_pos_as_xyz 
  x,y,z 
_cell_length_a                    34.79825728 
_cell_length_b                    34.868307900828796 
_cell_length_c                    38.64738579792132 
_cell_angle_alpha                 89.91544830383569 
_cell_angle_beta                  90.07391445561585 
_cell_angle_gamma                 122.97928913484941 
loop_ 
_atom_site_label 
_atom_site_type_symbol 
_atom_site_fract_x 
_atom_site_fract_y 
_atom_site_fract_z 
_atom_site_charge 
C1          C  0.82005925  0.33534324  0.64522552     0.87100
C2          C  0.76950346  0.29294328  0.64148061    -0.53100
C3          C  0.73963768  0.29297152  0.66457915     0.10100
C4          C  0.76643937  0.33574639  0.68843788     0.21000
C5          C  0.81438949  0.37726390  0.64173905    -0.53800
C6          C  0.78411292  0.37621977  0.66482614     0.10200
C7          C  0.83375206  0.33468406  0.68404853    -0.53400
C8          C  0.80443734  0.33459750  0.70774990     0.10700
H9          H  0.75836487  0.26772159  0.62104224     0.15200
H10         H  0.75154935  0.34473447  0.70588181     0.01000
H11         H  0.82869762  0.40177080  0.62066134     0.15600
H12         H  0.86319464  0.33359521  0.69156432     0.15300
C13         C  0.81739356  0.33117816  0.81119845     0.87100
C14         C  0.81217470  0.37322329  0.81410815    -0.53100
C15         C  0.78194815  0.37217906  0.79084780     0.10100
C16         C  0.76316066  0.32940880  0.76722184     0.21000
C17         C  0.76664976  0.28893033  0.81457920    -0.53800
C18         C  0.73751252  0.28899874  0.79086481     0.10200
C19         C  0.83212125  0.33163749  0.77239287    -0.53400
C20         C  0.80279023  0.33133748  0.74833489     0.10700
H21         H  0.82773248  0.39874690  0.83441276     0.15200
H22         H  0.73840941  0.31965897  0.74961375     0.01000
H23         H  0.75472455  0.26460925  0.83576756     0.15600
H24         H  0.86305444  0.33317963  0.76518551     0.15300
C25         C  0.71710828  0.43637273  0.64402599     0.87100
C26         C  0.75822274  0.42979990  0.64085118    -0.53100
C27         C  0.75652789  0.39933931  0.66429422     0.10100
C28         C  0.71361526  0.38134635  0.68793947     0.21000
C29         C  0.67367968  0.38586089  0.64078425    -0.53800
C30         C  0.67282667  0.35618350  0.66429254     0.10200
C31         C  0.71819097  0.45132364  0.68292067    -0.53400
C32         C  0.71680571  0.42152235  0.70707341     0.10700
H33         H  0.78374238  0.44512020  0.62048182     0.15200
H34         H  0.70332919  0.35664664  0.70554215     0.01000
H35         H  0.64915140  0.37414508  0.61972290     0.15600
H36         H  0.72068388  0.48266967  0.69010419     0.15300
C37         C  0.72043297  0.43752398  0.81098605     0.87100
C38         C  0.67649882  0.38749818  0.81364212    -0.53100
C39         C  0.67580498  0.35757081  0.79047662     0.10100
C40         C  0.71924286  0.38388618  0.76701047     0.21000
C41         C  0.76091363  0.42999678  0.81470269    -0.53800
C42         C  0.75936271  0.40012606  0.79098106     0.10200
C43         C  0.72131580  0.45260758  0.77213219    -0.53400
C44         C  0.71992600  0.42294380  0.74792534     0.10700
H45         H  0.65080921  0.37627336  0.83377137     0.15200
H46         H  0.72776462  0.36870054  0.74948987     0.01000
H47         H  0.78500471  0.44327321  0.83610102     0.15600
H48         H  0.72177974  0.48296182  0.76500994     0.15300
C49         C  0.60634981  0.22321450  0.64425059     0.87100
C50         C  0.61519355  0.27237774  0.64103480    -0.53100
C51         C  0.64662758  0.30316004  0.66438773     0.10100
C52         C  0.66275585  0.27831502  0.68813359     0.21000
C53         C  0.65613820  0.23273335  0.64105306    -0.53800
C54         C  0.68653165  0.26346159  0.66452161     0.10200
C55         C  0.59101027  0.20815078  0.68309776    -0.53400
C56         C  0.62154408  0.23846448  0.70723776     0.10700
H57         H  0.60096618  0.28226724  0.62050157     0.15200
H58         H  0.68782800  0.29438734  0.70555183     0.01000
H59         H  0.66709211  0.22023370  0.62004046     0.15600
H60         H  0.55899772  0.17710144  0.69027481     0.15300
C61         C  0.60514379  0.22449748  0.81117601     0.87100
C62         C  0.65436605  0.23321783  0.81391001    -0.53100
C63         C  0.68481048  0.26423954  0.79064120     0.10100
C64         C  0.66009012  0.28069286  0.76706927     0.21000
C65         C  0.61462602  0.27404221  0.81459219    -0.53800
C66         C  0.64538032  0.30447012  0.79079825     0.10200
C67         C  0.58984769  0.20918365  0.77230061    -0.53400
C68         C  0.62013477  0.23971217  0.74805788     0.10700
H69         H  0.66486304  0.21907973  0.83406932     0.15200
H70         H  0.67630598  0.30564254  0.74957409     0.01000
H71         H  0.60208174  0.28449588  0.83591403     0.15600
H72         H  0.55890709  0.17705404  0.76519892     0.15300
In73       In  0.52601339  0.13701214  0.56277719     1.36900
C74         C  0.50971233  0.18507892  0.51772729     0.78200
O75         O  0.53472723  0.18116477  0.61011565    -0.60200
O76         O  0.58708416  0.17044657  0.59691280    -0.51100
C77         C  0.46772748  0.05327934  0.58778673     0.70900
O78         O  0.45472905  0.07972113  0.58012109    -0.46000
C79         C  0.56704968  0.11747197  0.51490281     0.75600
O80         O  0.47770373  0.14866310  0.53141272    -0.57800
O81         O  0.58826443  0.14381027  0.53986513    -0.47900
O82         O  0.54894655  0.19866784  0.52921750    -0.54300
C83         C  0.57448967  0.19015636  0.61667972     0.85800
O84         O  0.51009270  0.07079518  0.58523818    -0.56200
O85         O  0.52448351  0.10008775  0.51455535    -0.59500
In86       In  0.52831015  0.32670348  0.39165193     1.36900
C87         C  0.51113991  0.26103013  0.43696101     0.78200
O88         O  0.53573877  0.29151070  0.34403884    -0.60200
O89         O  0.58989656  0.35787422  0.35808111    -0.51100
C90         C  0.46922562  0.34696376  0.36846359     0.70900
O91         O  0.45677889  0.30636552  0.37525678    -0.46000
C92         C  0.57011037  0.39152346  0.43909214     0.75600
O93         O  0.47944936  0.26063243  0.42072792    -0.57800
O94         O  0.59102284  0.38753862  0.41423615    -0.47900
O95         O  0.55084201  0.29229382  0.42800702    -0.54300
C96         C  0.57620212  0.32461344  0.33799049     0.85800
O97         O  0.51163549  0.37572326  0.37043099    -0.56200
O98         O  0.52738924  0.36323055  0.43936519    -0.59500
In99       In  0.71027389  0.14348784  0.39118742     1.36900
C100        C  0.77733938  0.19895354  0.43547938     0.78200
O101        O  0.74183835  0.18564625  0.34169818    -0.60200
O102        O  0.67848629  0.17274695  0.35964836    -0.51100
C103        C  0.69472656  0.06426096  0.36725426     0.70900
O104        O  0.73480131  0.09864490  0.37160503    -0.46000
C105        C  0.64562035  0.11791996  0.43846003     0.75600
O106        O  0.77069995  0.16137935  0.42570976    -0.57800
O107        O  0.64508131  0.13467172  0.40978523    -0.47900
O108        O  0.75294305  0.21023469  0.42027505    -0.54300
C109        C  0.70984332  0.19235367  0.33752383     0.85800
O110        O  0.66355535  0.07136318  0.37283985    -0.56200
O111        O  0.67782583  0.11185864  0.44252652    -0.59500
In112      In  0.90407367  0.33971380  0.56570209     1.36900
C113        C  0.85260038  0.27567465  0.51857493     0.78200
O114        O  0.85546216  0.30282683  0.61135754    -0.60200
O115        O  0.87791523  0.37138432  0.60064761    -0.51100
C116        C  0.98344363  0.35501013  0.58913568     0.70900
O117        O  0.94762361  0.31540194  0.58846539    -0.46000
C118        C  0.92860115  0.40507299  0.51949737     0.75600
O119        O  0.88651143  0.27821926  0.53282180    -0.57800
O120        O  0.90939643  0.40345948  0.54756577    -0.47900
O121        O  0.84253209  0.30254251  0.53072000    -0.54300
C122        C  0.85251789  0.33646768  0.61867985     0.85800
O123        O  0.97789907  0.38634736  0.58026470    -0.56200
O124        O  0.93762908  0.37490257  0.51581174    -0.59500
In125      In  0.90579251  0.51835672  0.39179692     1.36900
C126        C  0.85760532  0.53440519  0.43640216     0.78200
O127        O  0.86301182  0.50834657  0.34318334    -0.60200
O128        O  0.87066642  0.45515874  0.35989860    -0.51100
C129        C  0.98869728  0.57680455  0.36629357     0.70900
O130        O  0.96061007  0.58862133  0.37093880    -0.46000
C131        C  0.92790795  0.48085673  0.44106799     0.75600
O132        O  0.89344011  0.56657955  0.42217368    -0.57800
O133        O  0.90391573  0.45873408  0.41526199    -0.47900
O134        O  0.84436858  0.49520775  0.42530720    -0.54300
C135        C  0.85285105  0.46796305  0.33831261     0.85800
O136        O  0.97325171  0.53551089  0.37233125    -0.56200
O137        O  0.94207417  0.52265945  0.44132197    -0.59500
In138      In  0.71642575  0.51670442  0.56275488     1.36900
C139        C  0.78199540  0.53253710  0.51746091     0.78200
O140        O  0.75102165  0.50792753  0.61034233    -0.60200
O141        O  0.68425425  0.45469884  0.59650144    -0.51100
C142        C  0.69927855  0.57864417  0.58542851     0.70900
O143        O  0.73958579  0.58874778  0.58050884    -0.46000
C144        C  0.65076349  0.47392871  0.51594468     0.75600
O145        O  0.78369652  0.56434940  0.53433475    -0.57800
O146        O  0.65214388  0.45470918  0.54309487    -0.47900
O147        O  0.74927928  0.49316070  0.52556881    -0.54300
C148        C  0.71757723  0.46777770  0.61653444     0.85800
O149        O  0.66885463  0.53714676  0.58107688    -0.56200
O150        O  0.68189190  0.51571521  0.51316485    -0.59500
In151      In  0.20170614  0.46558810  0.56516766     1.36900
C152        C  0.24307023  0.43906604  0.52224165     0.78200
O153        O  0.16401573  0.46771134  0.51855725    -0.60200
O154        O  0.22226448  0.52981340  0.53679403    -0.51100
C155        C  0.11717116  0.41021098  0.58902272     0.70900
O156        O  0.14432112  0.39685822  0.58648220    -0.46000
C157        C  0.25310426  0.51594246  0.61943077     0.75600
O158        O  0.20391743  0.41112908  0.53454480    -0.57800
O159        O  0.23158962  0.52662399  0.59971961    -0.47900
O160        O  0.26250005  0.47877361  0.53446388    -0.54300
C161        C  0.19076510  0.51020360  0.51471610     0.85800
O162        O  0.13425986  0.45159262  0.58186073    -0.56200
O163        O  0.24626688  0.47710819  0.61292016    -0.59500
In164      In  0.38143823  0.46883230  0.39474899     1.36900
C165        C  0.31385530  0.43536593  0.44105632     0.78200
O166        O  0.44367012  0.49590597  0.42808832    -0.60200
O167        O  0.40904082  0.53084764  0.42834229    -0.51100
C168        C  0.40314632  0.41100562  0.37179536     0.70900
O169        O  0.36213407  0.39802614  0.37786161    -0.46000
C170        C  0.38217529  0.51683257  0.34009465     0.75600
O171        O  0.34780487  0.43196915  0.44442070    -0.57800
O172        O  0.41393089  0.53124054  0.36193713    -0.47900
O173        O  0.31161867  0.45132584  0.41235200    -0.54300
C174        C  0.44112686  0.52796254  0.44018209     0.85800
O175        O  0.43180292  0.45311121  0.37552727    -0.56200
O176        O  0.34954361  0.47591293  0.34504435    -0.59500
In177      In  0.20037966  0.64995793  0.39203125     1.36900
C178        C  0.24056692  0.71707582  0.43869558     0.78200
O179        O  0.15703896  0.58842730  0.42565151    -0.60200
O180        O  0.22926424  0.61918765  0.42534924    -0.51100
C181        C  0.12238819  0.63577359  0.36649393     0.70900
O182        O  0.15515733  0.67502708  0.37520505    -0.46000
C183        C  0.24964696  0.64913809  0.33923307     0.75600
O184        O  0.19936207  0.68451954  0.44086575    -0.57800
O185        O  0.22545188  0.61539820  0.35875714    -0.47900
O186        O  0.26052388  0.71764237  0.41127922    -0.54300
C187        C  0.19096121  0.58877151  0.43749389     0.85800
O188        O  0.13061865  0.60491621  0.36858248    -0.56200
O189        O  0.24668212  0.68305077  0.34530065    -0.59500
In190      In  0.38574721  0.83726371  0.56498636     1.36900
C191        C  0.31731324  0.79680983  0.51920163     0.78200
O192        O  0.44823640  0.87770000  0.53178733    -0.60200
O193        O  0.41220840  0.80494854  0.53087395    -0.51100
C194        C  0.40504569  0.91800256  0.58818705     0.70900
O195        O  0.36453558  0.88571870  0.58165964    -0.46000
C196        C  0.38841500  0.79013798  0.61860942     0.75600
O197        O  0.35267529  0.83590890  0.51456485    -0.57800
O198        O  0.41976234  0.81035243  0.59654675    -0.47900
O199        O  0.31437368  0.77990720  0.54874051    -0.54300
C200        C  0.44467966  0.84255692  0.51919474     0.85800
O201        O  0.43454157  0.90803697  0.58501207    -0.56200
O202        O  0.35546946  0.79523785  0.61426005    -0.59500
In203      In  0.58169499  0.67106585  0.56334823     1.36900
C204        C  0.61545423  0.73923907  0.51727210     0.78200
O205        O  0.55960813  0.61250879  0.52693090    -0.60200
O206        O  0.51854676  0.64040712  0.53060238    -0.51100
C207        C  0.63945911  0.64902615  0.58668948     0.70900
O208        O  0.65319122  0.68966594  0.57861930    -0.46000
C209        C  0.53179540  0.66929245  0.61764026     0.75600
O210        O  0.62106373  0.70670377  0.51470197    -0.57800
O211        O  0.51798637  0.63795347  0.59552693    -0.47900
O212        O  0.59674829  0.73972266  0.54506105    -0.54300
C213        C  0.52523859  0.61216102  0.51626653     0.85800
O214        O  0.59673937  0.62146949  0.58572325    -0.56200
O215        O  0.57290458  0.70210886  0.61302173    -0.59500
In216      In  0.57994266  0.84645787  0.39378204     1.36900
C217        C  0.61499161  0.81394122  0.43761169     0.78200
O218        O  0.55751496  0.88241733  0.42848319    -0.60200
O219        O  0.51988588  0.80980543  0.42982410    -0.51100
C220        C  0.63714265  0.93001378  0.36762973     0.70900
O221        O  0.65125227  0.90519343  0.37739418    -0.46000
C222        C  0.52746889  0.79277183  0.34136953     0.75600
O223        O  0.62005393  0.85221716  0.44167833    -0.57800
O224        O  0.51486137  0.80994268  0.36367542    -0.47900
O225        O  0.59619313  0.79426917  0.40949674    -0.54300
C226        C  0.52528534  0.84598117  0.44176533     0.85800
O227        O  0.59444504  0.91096774  0.36876871    -0.56200
O228        O  0.56849505  0.80402107  0.34503229    -0.59500
C229        C  0.39497250  0.76548063  0.81240290     0.87100
C230        C  0.35252123  0.71487596  0.81564901    -0.53100
C231        C  0.35309416  0.68529081  0.79261732     0.10100
C232        C  0.39619981  0.71237434  0.76915893     0.21000
C233        C  0.43709471  0.76002472  0.81618698    -0.53800
C234        C  0.43661365  0.73019112  0.79293031     0.10200
C235        C  0.39481792  0.77928417  0.77339993    -0.53400
C236        C  0.39477949  0.74987178  0.74972732     0.10700
H237        H  0.32687490  0.70348878  0.83583318     0.15200
H238        H  0.40558196  0.69796004  0.75171509     0.01000
H239        H  0.46153819  0.77444436  0.83732032     0.15600
H240        H  0.39348783  0.80850335  0.76578882     0.15300
C241        C  0.38951481  0.76023411  0.64620673     0.87100
C242        C  0.43224415  0.75607242  0.64311208    -0.53100
C243        C  0.43229704  0.72673180  0.66649381     0.10100
C244        C  0.38949567  0.70742756  0.69044568     0.21000
C245        C  0.34772039  0.70936580  0.64321793    -0.53800
C246        C  0.34869976  0.68092459  0.66700035     0.10200
C247        C  0.39016478  0.77547763  0.68481730    -0.53400
C248        C  0.39084499  0.74705170  0.70912299     0.10700
H249        H  0.45756983  0.77173782  0.62264122     0.15200
H250        H  0.38042229  0.68274001  0.70803533     0.01000
H251        H  0.32313855  0.69686365  0.62215007     0.15600
H252        H  0.39116237  0.80615573  0.69171978     0.15300
C253        C  0.49913445  0.66532969  0.81281257     0.87100
C254        C  0.49167855  0.70574357  0.81619302    -0.53100
C255        C  0.46080224  0.70357508  0.79291592     0.10100
C256        C  0.44333364  0.66091583  0.76911779     0.21000
C257        C  0.44874060  0.62148679  0.81616676    -0.53800
C258        C  0.41857025  0.62023875  0.79282679     0.10200
C259        C  0.51406141  0.66655715  0.77391710    -0.53400
C260        C  0.48381778  0.66439617  0.74981001     0.10700
H261        H  0.50661800  0.73105095  0.83668363     0.15200
H262        H  0.41837429  0.65068877  0.75177113     0.01000
H263        H  0.43741332  0.59713238  0.83729504     0.15600
H264        H  0.54563005  0.66940214  0.76668049     0.15300
C265        C  0.50011771  0.66774184  0.64562951     0.87100
C266        C  0.45012511  0.62366314  0.64280777    -0.53100
C267        C  0.41990660  0.62221334  0.66611731     0.10100
C268        C  0.44575496  0.66532550  0.68974704     0.21000
C269        C  0.49197388  0.70786931  0.64234516    -0.53800
C270        C  0.46151445  0.70545353  0.66611566     0.10200
C271        C  0.51507063  0.66840834  0.68459568    -0.53400
C272        C  0.48510699  0.66668489  0.70886321     0.10700
H273        H  0.43910394  0.59822130  0.62255952     0.15200
H274        H  0.43001465  0.67296967  0.70724009     0.01000
H275        H  0.50511725  0.73218323  0.62112094     0.15600
H276        H  0.54571627  0.66931718  0.69173007     0.15300
C277        C  0.28610620  0.54873952  0.64675460     0.87100
C278        C  0.29348444  0.59740111  0.64416087    -0.53100
C279        C  0.32476909  0.62842022  0.66716916     0.10100
C280        C  0.34255528  0.60470295  0.69036075     0.21000
C281        C  0.33624954  0.55970257  0.64261662    -0.53800
C282        C  0.36673608  0.59088729  0.66618218     0.10200
C283        C  0.27173273  0.53361098  0.68570475    -0.53400
C284        C  0.30215566  0.56461369  0.70956722     0.10700
H285        H  0.27832021  0.60711748  0.62425941     0.15200
H286        H  0.36758194  0.62079187  0.70802744     0.01000
H287        H  0.34688968  0.54769033  0.62105692     0.15600
H288        H  0.23991793  0.50252617  0.69314655     0.15300
C289        C  0.28499914  0.55251992  0.81302701     0.87100
C290        C  0.33475126  0.56256821  0.81660801    -0.53100
C291        C  0.36538690  0.59399695  0.79313036     0.10100
C292        C  0.33986991  0.60912649  0.76907005     0.21000
C293        C  0.29321889  0.60167303  0.81585200    -0.53800
C294        C  0.32395130  0.63227226  0.79243721     0.10200
C295        C  0.27048761  0.53662943  0.77431004    -0.53400
C296        C  0.30061781  0.56711229  0.75019202     0.10700
H297        H  0.34495126  0.54875048  0.83722900     0.15200
H298        H  0.35539321  0.63408070  0.75129380     0.01000
H299        H  0.28002935  0.61215760  0.83669127     0.15600
H300        H  0.24002971  0.50410179  0.76718655     0.15300
C301        C  0.60739873  0.32494676  0.31056776     0.87100
C302        C  0.61401213  0.28397340  0.31386928    -0.53100
C303        C  0.64451995  0.28574230  0.29049872     0.10100
C304        C  0.66242273  0.32850063  0.26672466     0.21000
C305        C  0.65799454  0.36830489  0.31375534    -0.53800
C306        C  0.68760286  0.36913917  0.29025392     0.10200
C307        C  0.59232595  0.32396886  0.27172037    -0.53400
C308        C  0.62221973  0.32558348  0.24759557     0.10700
H309        H  0.59887735  0.25862749  0.33435880     0.15200
H310        H  0.68729065  0.33869553  0.24932584     0.01000
H311        H  0.66985167  0.39282380  0.33476223     0.15600
H312        H  0.56097242  0.32163678  0.26453740     0.15300
C313        C  0.60627052  0.32320543  0.14378728     0.87100
C314        C  0.65638902  0.36686503  0.14104427    -0.53100
C315        C  0.68628077  0.36745531  0.16419595     0.10100
C316        C  0.66000499  0.32406895  0.18764579     0.21000
C317        C  0.61357850  0.28258134  0.14009925    -0.53800
C318        C  0.64368201  0.28408673  0.16377009     0.10200
C319        C  0.59134427  0.32237730  0.18264447    -0.53400
C320        C  0.62095814  0.32328868  0.20677791     0.10700
H321        H  0.66772202  0.39257684  0.12092821     0.15200
H322        H  0.67536525  0.31564429  0.20503799     0.01000
H323        H  0.60006566  0.25851465  0.11874944     0.15600
H324        H  0.56107690  0.32212015  0.18982344     0.15300
C325        C  0.70959252  0.22333941  0.31016733     0.87100
C326        C  0.75208210  0.27374660  0.31326902    -0.53100
C327        C  0.75161081  0.30322006  0.29012296     0.10100
C328        C  0.70840973  0.27621600  0.26659952     0.21000
C329        C  0.66753666  0.22890965  0.31374207    -0.53800
C330        C  0.66810425  0.25864787  0.29035593     0.10200
C331        C  0.70951992  0.20914297  0.27129141    -0.53400
C332        C  0.70943915  0.23839413  0.24743607     0.10700
H333        H  0.77770227  0.28516419  0.33350380     0.15200
H334        H  0.69903446  0.29062757  0.24899122     0.01000
H335        H  0.64315114  0.21477811  0.33490394     0.15600
H336        H  0.71064257  0.17976590  0.26389198     0.15300
C337        C  0.71317393  0.22644188  0.14413310     0.87100
C338        C  0.67106400  0.23164842  0.14088152    -0.53100
C339        C  0.67194577  0.26173266  0.16404574     0.10100
C340        C  0.71484764  0.28050909  0.18785524     0.21000
C341        C  0.75560242  0.27712116  0.14070125    -0.53800
C342        C  0.75542106  0.30631072  0.16419791     0.10200
C343        C  0.71251545  0.21157698  0.18284935    -0.53400
C344        C  0.71282784  0.24068447  0.20684104     0.10700
H345        H  0.64556577  0.21608374  0.12050200     0.15200
H346        H  0.72478060  0.30538092  0.20542497     0.01000
H347        H  0.77999150  0.28895189  0.11956162     0.15600
H348        H  0.71087432  0.18063458  0.19006622     0.15300
C349        C  0.82049785  0.43593733  0.31056352     0.87100
C350        C  0.77112891  0.42662884  0.31357780    -0.53100
C351        C  0.74060469  0.39529125  0.29017353     0.10100
C352        C  0.76580358  0.37961000  0.26643778     0.21000
C353        C  0.81159178  0.38650292  0.31367188    -0.53800
C354        C  0.78105727  0.35616975  0.29006038     0.10200
C355        C  0.83566499  0.45163229  0.27180394    -0.53400
C356        C  0.80552276  0.42118332  0.24757187     0.10700
H357        H  0.76091749  0.44057262  0.33403358     0.15200
H358        H  0.75001053  0.35444724  0.24887980     0.01000
H359        H  0.82422697  0.37568583  0.33473877     0.15600
H360        H  0.86646411  0.48392413  0.26475181     0.15300
C361        C  0.81948643  0.43904249  0.14396852     0.87100
C362        C  0.81110447  0.38994880  0.14100958    -0.53100
C363        C  0.77999270  0.35907094  0.16418134     0.10100
C364        C  0.76326624  0.38341488  0.18773662     0.21000
C365        C  0.76974054  0.42918474  0.14041086    -0.53800
C366        C  0.73936638  0.39806557  0.16401046     0.10200
C367        C  0.83455709  0.45393567  0.18287094    -0.53400
C368        C  0.80413482  0.42321240  0.20687214     0.10700
H369        H  0.82564801  0.37995916  0.12086578     0.15200
H370        H  0.73826778  0.36740608  0.20533659     0.01000
H371        H  0.75915161  0.44176379  0.11914788     0.15600
H372        H  0.86653550  0.48492934  0.19017022     0.15300
In373      In  0.57561944  0.84591389  0.06507392     1.36900
C374        C  0.59737207  0.80156838  0.02106370     0.78200
O375        O  0.56726911  0.80245627  0.11291923    -0.60200
O376        O  0.51460235  0.81248424  0.09940167    -0.51100
C377        C  0.63248241  0.93033772  0.08893362     0.70900
O378        O  0.64616416  0.90424352  0.08223788    -0.46000
C379        C  0.53444476  0.86230726  0.01493632     0.75600
O380        O  0.62738759  0.83496943  0.03875995    -0.57800
O381        O  0.51267674  0.83148057  0.03726062    -0.47900
O382        O  0.55682789  0.78866146  0.02812952    -0.54300
C383        C  0.52749760  0.79321288  0.11943617     0.85800
O384        O  0.59003970  0.91232919  0.08575934    -0.56200
O385        O  0.57726893  0.88614166  0.01884396    -0.59500
In386      In  0.58005713  0.66522882  0.89349823     1.36900
C387        C  0.60202036  0.73194821  0.93910639     0.78200
O388        O  0.57071669  0.70085893  0.84701763    -0.60200
O389        O  0.51913620  0.63239345  0.85901288    -0.51100
C390        C  0.63711026  0.64247562  0.86934054     0.70900
O391        O  0.64982222  0.68372698  0.87323832    -0.46000
C392        C  0.53223968  0.60182740  0.94084477     0.75600
O393        O  0.63105841  0.72364840  0.92863722    -0.57800
O394        O  0.51396766  0.60724421  0.91483000    -0.47900
O395        O  0.56405397  0.70984823  0.92382207    -0.54300
C396        C  0.53118516  0.66643075  0.84005367     0.85800
O397        O  0.59533664  0.61403482  0.87504882    -0.56200
O398        O  0.57511616  0.62806139  0.94249429    -0.59500
In399      In  0.20192911  0.65187865  0.06483346     1.36900
C400        C  0.24889261  0.71778351  0.01770744     0.78200
O401        O  0.26658710  0.68737759  0.09722496    -0.60200
O402        O  0.21222921  0.62303169  0.11443282    -0.51100
C403        C  0.12299258  0.64020332  0.08574177     0.70900
O404        O  0.15991046  0.67913051  0.08640662    -0.46000
C405        C  0.17949214  0.58378716  0.02158711     0.75600
O406        O  0.22481362  0.72078503  0.04062405    -0.57800
O407        O  0.20475833  0.59198167  0.04758771    -0.47900
O408        O  0.25081467  0.68292688  0.02010119    -0.54300
C409        C  0.25310705  0.65551060  0.11888949     0.85800
O410        O  0.12721927  0.60833745  0.07609909    -0.56200
O411        O  0.16399889  0.60891004  0.01849847    -0.59500
In412      In  0.39231427  0.84636540  0.89204471     1.36900
C413        C  0.32469623  0.80140915  0.93819631     0.78200
O414        O  0.36258449  0.80377141  0.84266623    -0.60200
O415        O  0.42584812  0.81749528  0.86151227    -0.51100
C416        C  0.40408684  0.92410649  0.86839890     0.70900
O417        O  0.36612245  0.89223945  0.88019387    -0.46000
C418        C  0.45704299  0.86135007  0.93656197     0.75600
O419        O  0.35737269  0.84214549  0.94243612    -0.57800
O420        O  0.42609568  0.82198816  0.92666189    -0.47900
O421        O  0.32397070  0.78477770  0.90905360    -0.54300
C422        C  0.39463534  0.79706678  0.83928317     0.85800
O423        O  0.43423739  0.91484297  0.86628714    -0.56200
O424        O  0.45623404  0.89373158  0.92289347    -0.59500
In425      In  0.19708514  0.46811412  0.89263760     1.36900
C426        C  0.24262710  0.44633002  0.93585515     0.78200
O427        O  0.24233797  0.47987192  0.84535941    -0.60200
O428        O  0.23159147  0.53149048  0.86046933    -0.51100
C429        C  0.11257900  0.41201964  0.86764328     0.70900
O430        O  0.14030270  0.39943663  0.87050764    -0.46000
C431        C  0.17915219  0.50656555  0.94381439     0.75600
O432        O  0.20681423  0.41607742  0.92035231    -0.57800
O433        O  0.20579966  0.52923627  0.91927852    -0.47900
O434        O  0.25702422  0.48660358  0.92680044    -0.54300
C435        C  0.25169842  0.51990827  0.84014525     0.85800
O436        O  0.12925202  0.45336114  0.87456595    -0.56200
O437        O  0.16048529  0.46393494  0.94192522    -0.59500
In438      In  0.38382938  0.46983788  0.06305218     1.36900
C439        C  0.31618338  0.44672138  0.01742177     0.78200
O440        O  0.34763161  0.47640569  0.11049909    -0.60200
O441        O  0.41486717  0.53027631  0.09806862    -0.51100
C442        C  0.40621490  0.41200709  0.08629629     0.70900
O443        O  0.36504983  0.40032006  0.08363282    -0.46000
C444        C  0.44817977  0.51782606  0.01617023     0.75600
O445        O  0.32282163  0.41762785  0.03037711    -0.57800
O446        O  0.44174680  0.53609780  0.04163378    -0.47900
O447        O  0.34093938  0.48615074  0.02998773    -0.54300
C448        C  0.38085952  0.51642454  0.11751995     0.85800
O449        O  0.43515915  0.45340626  0.07976915    -0.56200
O450        O  0.42260020  0.47491296  0.01490557    -0.59500
In451      In  0.90385300  0.52348620  0.06283326     1.36900
C452        C  0.86901439  0.55662725  0.01884599     0.78200
O453        O  0.93970202  0.50074203  0.02808554    -0.60200
O454        O  0.86696461  0.46278608  0.02767673    -0.51100
C455        C  0.98891032  0.58231347  0.08609820     0.70900
O456        O  0.96058899  0.59405537  0.08248332    -0.46000
C457        C  0.85224982  0.47170031  0.11657228     0.75600
O458        O  0.90935659  0.56618104  0.01647366    -0.57800
O459        O  0.86996008  0.45944834  0.09447574    -0.47900
O460        O  0.84802700  0.53423502  0.04554354    -0.54300
C461        C  0.90300913  0.46782639  0.01566370     0.85800
O462        O  0.97280558  0.54080757  0.08027271    -0.56200
O463        O  0.86283750  0.51234343  0.11256253    -0.59500
In464      In  0.72513889  0.51969922  0.89241780     1.36900
C465        C  0.79362482  0.55540575  0.93847504     0.78200
O466        O  0.66298124  0.49137368  0.92582660    -0.60200
O467        O  0.70078493  0.45965480  0.92745095    -0.51100
C468        C  0.70298588  0.57767228  0.86955297     0.70900
O469        O  0.74384943  0.59094634  0.87662218    -0.46000
C470        C  0.72207066  0.46917370  0.83860554     0.75600
O471        O  0.75877370  0.55728798  0.94198313    -0.57800
O472        O  0.69057897  0.45590559  0.86048948    -0.47900
O473        O  0.79610474  0.53961706  0.90975727    -0.54300
C474        C  0.66771963  0.46106388  0.93887972     0.85800
O475        O  0.67487571  0.53526034  0.87191691    -0.56200
O476        O  0.75549253  0.50986250  0.84319410    -0.59500
In477      In  0.71633430  0.14668014  0.06473346     1.36900
C478        C  0.78594551  0.18290579  0.02046412     0.78200
O479        O  0.65429359  0.10852954  0.03091975    -0.60200
O480        O  0.69487735  0.18125706  0.02777219    -0.51100
C481        C  0.69489263  0.06553169  0.08842932     0.70900
O482        O  0.73594311  0.09884440  0.08624495    -0.46000
C483        C  0.71354354  0.19533174  0.11726168     0.75600
O484        O  0.75129197  0.14302139  0.01722789    -0.57800
O485        O  0.68201665  0.17442588  0.09538130    -0.47900
O486        O  0.78758593  0.20273313  0.04821681    -0.54300
C487        C  0.66070086  0.14421228  0.01690258     0.85800
O488        O  0.66557627  0.07460188  0.08077314    -0.56200
O489        O  0.74609046  0.18952370  0.11360677    -0.59500
In490      In  0.89537068  0.32820885  0.89305775     1.36900
C491        C  0.85993108  0.26023602  0.93926939     0.78200
O492        O  0.93391319  0.38981067  0.92681604    -0.60200
O493        O  0.86095098  0.35171195  0.92824455    -0.51100
C494        C  0.97679568  0.34920960  0.86959192     0.70900
O495        O  0.94342447  0.30825208  0.87231792    -0.46000
C496        C  0.84814075  0.33077300  0.83877876     0.75600
O497        O  0.90013469  0.29468113  0.94124850    -0.57800
O498        O  0.86995035  0.36302162  0.85994273    -0.47900
O499        O  0.83869443  0.25816393  0.91211253    -0.54300
C500        C  0.89829906  0.38476589  0.93987802     0.85800
O501        O  0.96766492  0.37853105  0.87682618    -0.56200
O502        O  0.85206312  0.29730204  0.84420596    -0.59500
In503      In  0.52344724  0.14187716  0.89379883     1.36900
C504        C  0.49131701  0.17673868  0.93833448     0.78200
O505        O  0.54080635  0.10600419  0.93294537    -0.60200
O506        O  0.58884660  0.17692710  0.92423728    -0.51100
C507        C  0.46436451  0.05825707  0.86941617     0.70900
O508        O  0.45270421  0.08642667  0.87400636    -0.46000
C509        C  0.57330849  0.19205708  0.83907423     0.75600
O510        O  0.48136610  0.13636811  0.94031514    -0.57800
O511        O  0.58591541  0.17366149  0.86040054    -0.47900
O512        O  0.51447337  0.19832275  0.91205264    -0.54300
C513        C  0.57855896  0.14151088  0.94088718     0.85800
O514        O  0.50595836  0.07390224  0.87488212    -0.56200
O515        O  0.53332552  0.18294374  0.84452409    -0.59500
In516      In  0.52549374  0.32045132  0.06228067     1.36900
C517        C  0.48996046  0.25100487  0.01764363     0.78200
O518        O  0.55182548  0.38034200  0.02656207    -0.60200
O519        O  0.58761740  0.34671058  0.02874487    -0.51100
C520        C  0.46824797  0.34318468  0.08599428     0.70900
O521        O  0.45413323  0.30268867  0.07728073    -0.46000
C522        C  0.57487213  0.32223535  0.11621130     0.75600
O523        O  0.48483985  0.28386188  0.01437760    -0.57800
O524        O  0.58845696  0.35438770  0.09485925    -0.47900
O525        O  0.50892066  0.25095923  0.04548140    -0.54300
C526        C  0.58417162  0.37759290  0.01532557     0.85800
O527        O  0.51100827  0.37033275  0.08507551    -0.56200
O528        O  0.53420943  0.28888405  0.11113443    -0.59500
C529        C  0.38042539  0.54704751  0.14521621     0.87100
C530        C  0.33958322  0.55423256  0.14134381    -0.53100
C531        C  0.34072518  0.58394126  0.16519578     0.10100
C532        C  0.38067455  0.59999362  0.18938539     0.21000
C533        C  0.42401384  0.59731221  0.14291313    -0.53800
C534        C  0.42429242  0.62679302  0.16620055     0.10200
C535        C  0.37944558  0.53178288  0.18404008    -0.53400
C536        C  0.38040921  0.56115370  0.20832087     0.10700
H537        H  0.31580166  0.54110015  0.11975292     0.15200
H538        H  0.37175217  0.61433076  0.20731800     0.01000
H539        H  0.45004776  0.60903955  0.12300411     0.15600
H540        H  0.37961370  0.50174783  0.19108870     0.15300
C541        C  0.38299240  0.54781921  0.31223548     0.87100
C542        C  0.42627630  0.59817061  0.31579835    -0.53100
C543        C  0.42744231  0.62792506  0.29236202     0.10100
C544        C  0.38700802  0.60314722  0.26832624     0.21000
C545        C  0.34183411  0.55424546  0.31510937    -0.53800
C546        C  0.34390686  0.58500197  0.29186500     0.10200
C547        C  0.38239494  0.53302559  0.27336740    -0.53400
C548        C  0.38386666  0.56286768  0.24918578     0.10700
H549        H  0.45048288  0.60985731  0.33707782     0.15200
H550        H  0.39782105  0.62836589  0.25082729     0.01000
H551        H  0.31623808  0.53896874  0.33543122     0.15600
H552        H  0.37986485  0.50165217  0.26621873     0.15300
C553        C  0.28409442  0.65492536  0.14614682     0.87100
C554        C  0.33511635  0.69712765  0.14354627    -0.53100
C555        C  0.36371287  0.69584117  0.16706748     0.10100
C556        C  0.33740671  0.65467153  0.18985204     0.21000
C557        C  0.28889160  0.61273302  0.14222108    -0.53800
C558        C  0.31855448  0.61249972  0.16546742     0.10200
C559        C  0.26903012  0.65348577  0.18502318    -0.53400
C560        C  0.29805191  0.65309458  0.20900542     0.10700
H561        H  0.34774377  0.72244713  0.12304054     0.15200
H562        H  0.36193053  0.66329484  0.20717029     0.01000
H563        H  0.27318647  0.58800951  0.12139028     0.15600
H564        H  0.23840800  0.65249042  0.19232990     0.15300
C565        C  0.28132471  0.64947075  0.31241466     0.87100
C566        C  0.28687293  0.60749703  0.31553365    -0.53100
C567        C  0.31702656  0.60876061  0.29216802     0.10100
C568        C  0.33487912  0.64959665  0.26895420     0.21000
C569        C  0.33184489  0.69187459  0.31620691    -0.53800
C570        C  0.36168972  0.69217394  0.29302116     0.10200
C571        C  0.26747022  0.65024986  0.27357201    -0.53400
C572        C  0.29677721  0.65049844  0.24968366     0.10700
H573        H  0.27235146  0.58262018  0.33635954     0.15200
H574        H  0.35026980  0.64131339  0.25169132     0.01000
H575        H  0.34301193  0.71686445  0.33682861     0.15600
H576        H  0.23780549  0.65102440  0.26620291     0.15300
C577        C  0.49600442  0.76013478  0.14711365     0.87100
C578        C  0.48600922  0.71050903  0.14292972    -0.53100
C579        C  0.45513368  0.67980926  0.16656082     0.10100
C580        C  0.44081200  0.70333815  0.19091431     0.21000
C581        C  0.44695920  0.75192887  0.14484075    -0.53800
C582        C  0.41638470  0.72054934  0.16779789     0.10200
C583        C  0.51159196  0.77473946  0.18595496    -0.53400
C584        C  0.48120626  0.74408867  0.21002195     0.10700
H585        H  0.49820335  0.70024758  0.12124564     0.15200
H586        H  0.42431174  0.67774759  0.20819395     0.01000
H587        H  0.43651454  0.76650741  0.12500247     0.15600
H588        H  0.54261412  0.80671623  0.19320023     0.15300
C589        C  0.49486244  0.76038204  0.31379754     0.87100
C590        C  0.44545527  0.75187660  0.31693407    -0.53100
C591        C  0.41484924  0.72156449  0.29324847     0.10100
C592        C  0.43819005  0.70631643  0.26958194     0.21000
C593        C  0.48502830  0.71085328  0.31671585    -0.53800
C594        C  0.45355333  0.68074235  0.29309995     0.10200
C595        C  0.51056162  0.77548384  0.27499366    -0.53400
C596        C  0.47980920  0.74562408  0.25075614     0.10700
H597        H  0.43488285  0.76463570  0.33801815     0.15200
H598        H  0.41350417  0.69113372  0.25179801     0.01000
H599        H  0.49891353  0.70034105  0.33707534     0.15600
H600        H  0.54306926  0.80602926  0.26792576     0.15300
C601        C  0.48077836  0.19780864  0.96561600    -0.12600
C602        C  0.48000176  0.21920085  0.98993921    -0.14200
C603        C  0.63148273  0.14275345  0.99017948    -0.12600
C604        C  0.60736173  0.14183428  0.96745306    -0.14200
C605        C  0.83873975  0.22833861  0.96747599    -0.12600
C606        C  0.81777029  0.20594469  0.99254584    -0.14200
C607        C  0.63833998  0.43109659  0.96553753    -0.12600
C608        C  0.61413377  0.40678313  0.98855848    -0.14200
C609        C  0.90210517  0.43863364  0.98927201    -0.12600
C610        C  0.90028951  0.41415565  0.96655927    -0.14200
C611        C  0.84698854  0.56596314  0.99131742    -0.12600
C612        C  0.82520627  0.56563900  0.96666583    -0.14200
C613        C  0.43857051  0.35932208  0.09303606    -0.12600
C614        C  0.42011541  0.38045370  0.09316954    -0.14200
C615        C  0.06426342  0.38153330  0.86066325    -0.12600
C616        C  0.02300348  0.36260509  0.86150835    -0.14200
C617        C  0.28534207  0.43724235  0.98880494    -0.12600
C618        C  0.26425370  0.43696815  0.96368217    -0.14200
C619        C  0.43294243  0.01053844  0.86163260    -0.12600
C620        C  0.41468229  0.96949294  0.86139568    -0.14200
C621        C  0.03710284  0.61351705  0.09328818    -0.12600
C622        C  0.07825328  0.63145208  0.09314824    -0.14200
C623        C  0.17218596  0.55099199  0.99580096    -0.12600
C624        C  0.17223743  0.52829811  0.97237111    -0.16600
C625        C  0.27192288  0.75058656  0.99014265    -0.12600
C626        C  0.29350416  0.77477129  0.96584299    -0.14200
C627        C  0.68784283  0.60809258  0.86239565    -0.12600
C628        C  0.66781275  0.62764614  0.86219428    -0.14200
C629        C  0.50572225  0.56933854  0.96727786    -0.12600
C630        C  0.48084233  0.54437023  0.98979892    -0.14200
C631        C  0.68150366  0.01944415  0.09613525    -0.12600
C632        C  0.66265260  0.97834857  0.09627931    -0.14200
C633        C  0.60773370  0.78095683  0.99329130    -0.12600
C634        C  0.60945547  0.76131121  0.96810725    -0.14200
C635        C  0.51189642  0.86822204  0.98638200    -0.12600
C636        C  0.48929376  0.86800254  0.96269581    -0.14200
C637        C  0.62526622  0.77052376  0.48911891    -0.12600
C638        C  0.62518364  0.79226409  0.46470315    -0.14200
C639        C  0.49751652  0.84569089  0.46914678    -0.12600
C640        C  0.47430608  0.84490795  0.49251155    -0.14200
C641        C  0.26384209  0.74881486  0.46675432    -0.12600
C642        C  0.28558587  0.77177935  0.49145116    -0.14200
C643        C  0.47175632  0.55815364  0.46631072    -0.12600
C644        C  0.49633535  0.58252554  0.48920116    -0.14200
C645        C  0.18678593  0.55784966  0.46374443    -0.12600
C646        C  0.18660149  0.53467951  0.48686798    -0.14200
C647        C  0.28328735  0.42680899  0.46942225    -0.12600
C648        C  0.26316034  0.42819217  0.49441526    -0.14200
C649        C  0.68748702  0.61167141  0.59258683    -0.12600
C650        C  0.66949172  0.63319296  0.59305025    -0.14200
C651        C  0.03630985  0.60775041  0.35808326    -0.12600
C652        C  0.07728849  0.62526650  0.35824995    -0.14200
C653        C  0.83465318  0.54074232  0.46478666    -0.12600
C654        C  0.81301578  0.53992706  0.48962660    -0.14200
C655        C  0.02833464  0.36447926  0.59659538    -0.12600
C656        C  0.06912087  0.38082972  0.59658567    -0.14200
C657        C  0.93608322  0.45914012  0.46897597    -0.12600
C658        C  0.93638106  0.43678214  0.49260058    -0.14200
C659        C  0.68408326  0.01897792  0.35959487    -0.12600
C660        C  0.66674101  0.97802612  0.35962794    -0.14200
C661        C  0.82872383  0.24667965  0.48919466    -0.12600
C662        C  0.80750833  0.22517496  0.46378806    -0.14200
C663        C  0.43783847  0.36113220  0.36264233    -0.12600
C664        C  0.41772880  0.38048187  0.36388180    -0.14200
C665        C  0.59398377  0.42425833  0.46608694    -0.12600
C666        C  0.61802770  0.44890854  0.48912787    -0.14200
C667        C  0.43705815  0.00531020  0.59535434    -0.12600
C668        C  0.41818720  0.96416940  0.59542465    -0.14200
C669        C  0.59037251  0.10977523  0.48811553    -0.12600
C670        C  0.61375730  0.10964412  0.46530495    -0.14200
C671        C  0.50350317  0.23010682  0.46495851    -0.12600
C672        C  0.50309972  0.20840436  0.48965085    -0.14200
loop_ 
_geom_bond_atom_site_label_1 
_geom_bond_atom_site_label_2 
_geom_bond_distance 
_geom_bond_site_symmetry_2 
_ccdc_geom_bond_type 
C1            C2   1.572       .  S
C1            C7   1.578       .  S
C1            C5   1.583       .  S
C1          C122   1.511       .  S
C2            H9   1.085       .  S
C2            C3   1.371       .  D
C3            C4   1.560       .  S
C3           C54   1.550       .  S
C4            C8   1.537       .  S
C4            C6   1.502       .  S
C4           H10   1.000       .  S
C5           H11   1.085       .  S
C5            C6   1.367       .  D
C6           C27   1.554       .  S
C7           H12   1.085       .  S
C7            C8   1.371       .  D
C8           C20   1.571       .  S
C13          C14   1.576       .  S
C13          C19   1.583       .  S
C13          C17   1.573       .  S
C13         C496   1.515       .  S
C14          H21   1.085       .  S
C14          C15   1.368       .  D
C15          C16   1.558       .  S
C15          C42   1.550       .  S
C16          C20   1.530       .  S
C16          C18   1.499       .  S
C16          H22   1.000       .  S
C17          H23   1.085       .  S
C17          C18   1.367       .  D
C18          C63   1.544       .  S
C19          H24   1.085       .  S
C19          C20   1.376       .  D
C25          C26   1.572       .  S
C25          C31   1.585       .  S
C25          C29   1.582       .  S
C25         C148   1.518       .  S
C26          H33   1.085       .  S
C26          C27   1.372       .  D
C27          C28   1.562       .  S
C28          C32   1.535       .  S
C28          C30   1.504       .  S
C28          H34   0.998       .  S
C29          H35   1.085       .  S
C29          C30   1.364       .  D
C30          C51   1.554       .  S
C31          H36   1.085       .  S
C31          C32   1.377       .  D
C32          C44   1.581       .  S
C37          C38   1.577       .  S
C37          C43   1.585       .  S
C37          C41   1.573       .  S
C37         C470   1.515       .  S
C38          H45   1.085       .  S
C38          C39   1.366       .  D
C39          C40   1.562       .  S
C39          C66   1.554       .  S
C40          C44   1.537       .  S
C40          C42   1.505       .  S
C40          H46   1.000       .  S
C41          H47   1.085       .  S
C41          C42   1.367       .  D
C43          H48   1.085       .  S
C43          C44   1.377       .  D
C49          C50   1.573       .  S
C49          C55   1.584       .  S
C49          C53   1.582       .  S
C49          C83   1.517       .  S
C50          H57   1.085       .  S
C50          C51   1.373       .  D
C51          C52   1.560       .  S
C52          C56   1.537       .  S
C52          C54   1.502       .  S
C52          H58   0.998       .  S
C53          H59   1.085       .  S
C53          C54   1.362       .  D
C55          H60   1.085       .  S
C55          C56   1.376       .  D
C56          C68   1.580       .  S
C61          C62   1.572       .  S
C61          C67   1.586       .  S
C61          C65   1.578       .  S
C61         C509   1.518       .  S
C62          H69   1.085       .  S
C62          C63   1.361       .  D
C63          C64   1.560       .  S
C64          C68   1.534       .  S
C64          C66   1.502       .  S
C64          H70   0.999       .  S
C65          H71   1.085       .  S
C65          C66   1.371       .  D
C67          H72   1.085       .  S
C67          C68   1.378       .  D
In73         O75   2.304       .  S
In73         O76   2.217       .  S
In73         O84   2.235       .  S
In73         O78   2.280       .  S
In73         O80   2.280       .  S
In73         O81   2.231       .  S
In73         O82   2.251       .  S
In73         O85   2.251       .  S
C74          O80   1.262       .  A
C74          O82   1.257       .  A
C74         C672   1.446       .  S
O75          C83   1.267       .  A
O76          C83   1.256       .  A
C77          O84   1.255       .  A
C77          O78   1.263       .  A
C77         C667   1.442       .  S
C79          O81   1.258       .  A
C79          O85   1.259       .  A
C79         C669   1.429       .  S
In86         O88   2.305       .  S
In86         O89   2.219       .  S
In86         O97   2.237       .  S
In86         O91   2.275       .  S
In86         O93   2.279       .  S
In86         O94   2.233       .  S
In86         O95   2.246       .  S
In86         O98   2.253       .  S
C87          O93   1.262       .  A
C87          O95   1.256       .  A
C87         C671   1.445       .  S
O88          C96   1.265       .  A
O89          C96   1.255       .  A
C90          O97   1.256       .  A
C90          O91   1.262       .  A
C90         C663   1.440       .  S
C92          O94   1.259       .  A
C92          O98   1.260       .  A
C92         C665   1.432       .  S
C96         C301   1.514       .  S
In99        O101   2.295       .  S
In99        O102   2.230       .  S
In99        O110   2.241       .  S
In99        O104   2.281       .  S
In99        O106   2.271       .  S
In99        O107   2.237       .  S
In99        O108   2.264       .  S
In99        O111   2.252       .  S
C100        O106   1.259       .  A
C100        O108   1.258       .  A
C100        C662   1.446       .  S
O101        C109   1.266       .  A
O102        C109   1.256       .  A
C103        O110   1.256       .  A
C103        O104   1.261       .  A
C103        C659   1.443       .  S
C105        O107   1.257       .  A
C105        O111   1.258       .  A
C105        C670   1.429       .  S
C109        C325   1.514       .  S
In112       O114   2.294       .  S
In112       O115   2.230       .  S
In112       O123   2.239       .  S
In112       O117   2.276       .  S
In112       O119   2.273       .  S
In112       O120   2.239       .  S
In112       O121   2.252       .  S
In112       O124   2.242       .  S
C113        O119   1.260       .  A
C113        O121   1.257       .  A
C113        C661   1.445       .  S
O114        C122   1.264       .  A
O115        C122   1.256       .  A
C116        O123   1.256       .  A
C116        O117   1.260       .  A
C116        C655   1.439   1_655  S
C118        O120   1.260       .  A
C118        O124   1.259       .  A
C118        C658   1.431       .  S
In125       O127   2.302       .  S
In125       O128   2.223       .  S
In125       O136   2.216       .  S
In125       O130   2.281       .  S
In125       O132   2.277       .  S
In125       O133   2.235       .  S
In125       O134   2.241       .  S
In125       O137   2.251       .  S
C126        O132   1.262       .  A
C126        O134   1.257       .  A
C126        C653   1.444       .  S
O127        C135   1.266       .  A
O128        C135   1.256       .  A
C129        O136   1.254       .  A
C129        O130   1.263       .  A
C129        C651   1.437   1_655  S
C131        O133   1.259       .  A
C131        O137   1.259       .  A
C131        C657   1.431       .  S
C135        C349   1.515       .  S
In138       O140   2.306       .  S
In138       O141   2.234       .  S
In138       O149   2.245       .  S
In138       O143   2.287       .  S
In138       O145   2.283       .  S
In138       O146   2.234       .  S
In138       O147   2.253       .  S
In138       O150   2.251       .  S
C139        O145   1.261       .  A
C139        O147   1.256       .  A
C139        C654   1.445       .  S
O140        C148   1.264       .  A
O141        C148   1.255       .  A
C142        O149   1.255       .  A
C142        O143   1.261       .  A
C142        C649   1.445       .  S
C144        O146   1.259       .  A
C144        O150   1.261       .  A
C144        C666   1.432       .  S
In151       O153   2.252       .  S
In151       O154   2.232       .  S
In151       O162   2.218       .  S
In151       O156   2.280       .  S
In151       O158   2.276       .  S
In151       O159   2.234       .  S
In151       O160   2.245       .  S
In151       O163   2.300       .  S
C152        O158   1.260       .  A
C152        O160   1.257       .  A
C152        C648   1.442       .  S
O153        C161   1.258       .  A
O154        C161   1.257       .  A
C155        O162   1.256       .  A
C155        O156   1.264       .  A
C155        C656   1.437       .  S
C157        C277   1.521       .  S
C157        O159   1.257       .  A
C157        O163   1.266       .  A
C161        C646   1.428       .  S
In164       O166   2.239       .  S
In164       O167   2.242       .  S
In164       O175   2.230       .  S
In164       O169   2.274       .  S
In164       O171   2.251       .  S
In164       O172   2.222       .  S
In164       O173   2.264       .  S
In164       O176   2.297       .  S
C165        O171   1.256       .  A
C165        O173   1.262       .  A
C165        C647   1.442       .  S
O166        C174   1.259       .  A
O167        C174   1.260       .  A
C168        O175   1.256       .  A
C168        O169   1.263       .  A
C168        C664   1.440       .  S
C170        C541   1.513       .  S
C170        O172   1.257       .  A
C170        O176   1.264       .  A
C174        C643   1.429       .  S
In177       O179   2.245       .  S
In177       O180   2.233       .  S
In177       O188   2.242       .  S
In177       O182   2.271       .  S
In177       O184   2.251       .  S
In177       O185   2.240       .  S
In177       O186   2.264       .  S
In177       O189   2.273       .  S
C178        O184   1.257       .  A
C178        O186   1.262       .  A
C178        C641   1.443       .  S
O179        C187   1.259       .  A
O180        C187   1.258       .  A
C181        O188   1.258       .  A
C181        O182   1.260       .  A
C181        C652   1.439       .  S
C183        C565   1.509       .  S
C183        O185   1.258       .  A
C183        O189   1.264       .  A
C187        C645   1.428       .  S
In190       O192   2.242       .  S
In190       O193   2.234       .  S
In190       O201   2.239       .  S
In190       O195   2.275       .  S
In190       O197   2.249       .  S
In190       O198   2.230       .  S
In190       O199   2.270       .  S
In190       O202   2.280       .  S
C191        O197   1.256       .  A
C191        O199   1.262       .  A
C191        C642   1.443       .  S
O192        C200   1.261       .  A
O193        C200   1.260       .  A
C194        O201   1.256       .  A
C194        O195   1.261       .  A
C194        C668   1.442       .  S
C196        C241   1.505       .  S
C196        O198   1.256       .  A
C196        O202   1.263       .  A
C200        C640   1.430       .  S
In203       O205   2.244       .  S
In203       O206   2.239       .  S
In203       O214   2.234       .  S
In203       O208   2.280       .  S
In203       O210   2.259       .  S
In203       O211   2.238       .  S
In203       O212   2.266       .  S
In203       O215   2.306       .  S
C204        O210   1.256       .  A
C204        O212   1.261       .  A
C204        C637   1.443       .  S
O205        C213   1.258       .  A
O206        C213   1.258       .  A
C207        O214   1.257       .  A
C207        O208   1.263       .  A
C207        C650   1.444       .  S
C209        C265   1.525       .  S
C209        O211   1.259       .  A
C209        O215   1.267       .  A
C213        C644   1.429       .  S
In216       O218   2.248       .  S
In216       O219   2.244       .  S
In216       O227   2.238       .  S
In216       O221   2.285       .  S
In216       O223   2.259       .  S
In216       O224   2.228       .  S
In216       O225   2.262       .  S
In216       O228   2.294       .  S
C217        O223   1.258       .  A
C217        O225   1.261       .  A
C217        C638   1.443       .  S
O218        C226   1.258       .  A
O219        C226   1.258       .  A
C220        O227   1.256       .  A
C220        O221   1.262       .  A
C220        C660   1.443       .  S
C222        C589   1.518       .  S
C222        O224   1.258       .  A
C222        O228   1.266       .  A
C226        C639   1.430       .  S
C229        C230   1.573       .  S
C229        C235   1.583       .  S
C229        C233   1.584       .  S
C229        C422   1.520       .  S
C230        H237   1.085       .  S
C230        C231   1.372       .  D
C231        C232   1.556       .  S
C231        C294   1.551       .  S
C232        C236   1.531       .  S
C232        C234   1.502       .  S
C232        H238   0.997       .  S
C233        H239   1.085       .  S
C233        C234   1.369       .  D
C234        C255   1.556       .  S
C235        H240   1.085       .  S
C235        C236   1.375       .  D
C236        C248   1.574       .  S
C241        C242   1.575       .  S
C241        C247   1.581       .  S
C241        C245   1.570       .  S
C242        H249   1.085       .  S
C242        C243   1.365       .  D
C243        C244   1.562       .  S
C243        C270   1.551       .  S
C244        C248   1.538       .  S
C244        C246   1.504       .  S
C244        H250   1.003       .  S
C245        H251   1.085       .  S
C245        C246   1.365       .  D
C246        C279   1.544       .  S
C247        H252   1.085       .  S
C247        C248   1.374       .  D
C253        C254   1.571       .  S
C253        C259   1.584       .  S
C253        C257   1.584       .  S
C253        C396   1.518       .  S
C254        H261   1.085       .  S
C254        C255   1.371       .  D
C255        C256   1.564       .  S
C256        C260   1.540       .  S
C256        C258   1.504       .  S
C256        H262   0.996       .  S
C257        H263   1.085       .  S
C257        C258   1.366       .  D
C258        C291   1.555       .  S
C259        H264   1.085       .  S
C259        C260   1.376       .  D
C260        C272   1.584       .  S
C265        C266   1.578       .  S
C265        C271   1.589       .  S
C265        C269   1.576       .  S
C266        H273   1.085       .  S
C266        C267   1.365       .  D
C267        C268   1.560       .  S
C267        C282   1.554       .  S
C268        C272   1.533       .  S
C268        C270   1.502       .  S
C268        H274   0.994       .  S
C269        H275   1.085       .  S
C269        C270   1.371       .  D
C271        H276   1.085       .  S
C271        C272   1.380       .  D
C277        C278   1.575       .  S
C277        C283   1.583       .  S
C277        C281   1.578       .  S
C278        H285   1.085       .  S
C278        C279   1.365       .  D
C279        C280   1.557       .  S
C280        C284   1.530       .  S
C280        C282   1.503       .  S
C280        H286   1.004       .  S
C281        H287   1.085       .  S
C281        C282   1.372       .  D
C283        H288   1.085       .  S
C283        C284   1.376       .  D
C284        C296   1.575       .  S
C289        C290   1.574       .  S
C289        C295   1.580       .  S
C289        C293   1.580       .  S
C289        C435   1.516       .  S
C290        H297   1.085       .  S
C290        C291   1.374       .  D
C291        C292   1.561       .  S
C292        C296   1.538       .  S
C292        C294   1.505       .  S
C292        H298   1.004       .  S
C293        H299   1.085       .  S
C293        C294   1.363       .  D
C295        H300   1.085       .  S
C295        C296   1.373       .  D
C301        C302   1.571       .  S
C301        C307   1.584       .  S
C301        C305   1.582       .  S
C302        H309   1.085       .  S
C302        C303   1.370       .  D
C303        C304   1.562       .  S
C303        C330   1.552       .  S
C304        C308   1.535       .  S
C304        C306   1.501       .  S
C304        H310   0.997       .  S
C305        H311   1.085       .  S
C305        C306   1.363       .  D
C306        C351   1.550       .  S
C307        H312   1.085       .  S
C307        C308   1.376       .  D
C308        C320   1.579       .  S
C313        C314   1.575       .  S
C313        C319   1.585       .  S
C313        C317   1.576       .  S
C313        C522   1.512       .  S
C314        H321   1.085       .  S
C314        C315   1.363       .  D
C315        C316   1.561       .  S
C315        C366   1.551       .  S
C316        C320   1.535       .  S
C316        C318   1.503       .  S
C316        H322   0.997       .  S
C317        H323   1.085       .  S
C317        C318   1.369       .  D
C318        C339   1.552       .  S
C319        H324   1.085       .  S
C319        C320   1.377       .  D
C325        C326   1.569       .  S
C325        C331   1.582       .  S
C325        C329   1.584       .  S
C326        H333   1.085       .  S
C326        C327   1.368       .  D
C327        C328   1.559       .  S
C327        C354   1.549       .  S
C328        C332   1.531       .  S
C328        C330   1.501       .  S
C328        H334   0.999       .  S
C329        H335   1.085       .  S
C329        C330   1.367       .  D
C331        H336   1.085       .  S
C331        C332   1.375       .  D
C332        C344   1.572       .  S
C337        C338   1.576       .  S
C337        C343   1.579       .  S
C337        C341   1.575       .  S
C337        C483   1.508       .  S
C338        H345   1.085       .  S
C338        C339   1.368       .  D
C339        C340   1.562       .  S
C340        C344   1.537       .  S
C340        C342   1.502       .  S
C340        H346   1.004       .  S
C341        H347   1.085       .  S
C341        C342   1.368       .  D
C342        C363   1.550       .  S
C343        H348   1.085       .  S
C343        C344   1.371       .  D
C349        C350   1.570       .  S
C349        C355   1.583       .  S
C349        C353   1.581       .  S
C350        H357   1.085       .  S
C350        C351   1.370       .  D
C351        C352   1.560       .  S
C352        C356   1.537       .  S
C352        C354   1.501       .  S
C352        H358   1.004       .  S
C353        H359   1.085       .  S
C353        C354   1.363       .  D
C355        H360   1.085       .  S
C355        C356   1.376       .  D
C356        C368   1.576       .  S
C361        C362   1.577       .  S
C361        C367   1.584       .  S
C361        C365   1.577       .  S
C361        C457   1.518       .  S
C362        H369   1.085       .  S
C362        C363   1.365       .  D
C363        C364   1.559       .  S
C364        C368   1.532       .  S
C364        C366   1.501       .  S
C364        H370   1.001       .  S
C365        H371   1.085       .  S
C365        C366   1.370       .  D
C367        H372   1.085       .  S
C367        C368   1.376       .  D
In373       O375   2.305       .  S
In373       O376   2.222       .  S
In373       O384   2.235       .  S
In373       O378   2.273       .  S
In373       O380   2.276       .  S
In373       O381   2.236       .  S
In373       O382   2.244       .  S
In373       O385   2.251       .  S
C374        O380   1.261       .  A
C374        O382   1.256       .  A
C374        C633   1.444   1_554  S
O375        C383   1.264       .  A
O376        C383   1.256       .  A
C377        O384   1.257       .  A
C377        O378   1.263       .  A
C377        C632   1.440       .  S
C379        O381   1.259       .  A
C379        O385   1.259       .  A
C379        C635   1.432   1_554  S
C383        C577   1.516       .  S
In386       O388   2.304       .  S
In386       O389   2.222       .  S
In386       O397   2.240       .  S
In386       O391   2.285       .  S
In386       O393   2.282       .  S
In386       O394   2.235       .  S
In386       O395   2.248       .  S
In386       O398   2.246       .  S
C387        O393   1.260       .  A
C387        O395   1.257       .  A
C387        C634   1.444       .  S
O388        C396   1.268       .  A
O389        C396   1.256       .  A
C390        O397   1.255       .  A
C390        O391   1.263       .  A
C390        C628   1.445       .  S
C392        O394   1.257       .  A
C392        O398   1.257       .  A
C392        C629   1.428       .  S
In399       O401   2.264       .  S
In399       O402   2.280       .  S
In399       O410   2.227       .  S
In399       O404   2.292       .  S
In399       O406   2.279       .  S
In399       O407   2.246       .  S
In399       O408   2.248       .  S
In399       O411   2.246       .  S
C400        O406   1.263       .  A
C400        O408   1.256       .  A
C400        C625   1.444   1_554  S
O401        C409   1.260       .  A
O402        C409   1.258       .  A
C403        O410   1.255       .  A
C403        O404   1.263       .  A
C403        C622   1.443       .  S
C405        O407   1.261       .  A
C405        O411   1.259       .  A
C405        C623   1.432   1_554  S
C409        C553   1.515       .  S
In412       O414   2.291       .  S
In412       O415   2.248       .  S
In412       O423   2.242       .  S
In412       O417   2.277       .  S
In412       O419   2.259       .  S
In412       O420   2.230       .  S
In412       O421   2.267       .  S
In412       O424   2.257       .  S
C413        O419   1.257       .  A
C413        O421   1.261       .  A
C413        C626   1.444       .  S
O414        C422   1.265       .  A
O415        C422   1.258       .  A
C416        O423   1.257       .  A
C416        O417   1.261       .  A
C416        C620   1.441       .  S
C418        O420   1.257       .  A
C418        O424   1.260       .  A
C418        C636   1.431       .  S
In425       O427   2.300       .  S
In425       O428   2.231       .  S
In425       O436   2.236       .  S
In425       O430   2.285       .  S
In425       O432   2.284       .  S
In425       O433   2.235       .  S
In425       O434   2.245       .  S
In425       O437   2.253       .  S
C426        O432   1.262       .  A
C426        O434   1.256       .  A
C426        C618   1.447       .  S
O427        C435   1.265       .  A
O428        C435   1.257       .  A
C429        O436   1.256       .  A
C429        O430   1.263       .  A
C429        C615   1.443       .  S
C431        O433   1.259       .  A
C431        O437   1.259       .  A
C431        C624   1.432       .  S
In438       O440   2.307       .  S
In438       O441   2.228       .  S
In438       O449   2.246       .  S
In438       O443   2.282       .  S
In438       O445   2.282       .  S
In438       O446   2.239       .  S
In438       O447   2.259       .  S
In438       O450   2.249       .  S
C439        O445   1.260       .  A
C439        O447   1.257       .  A
C439        C617   1.448   1_554  S
O440        C448   1.266       .  A
O441        C448   1.256       .  A
C442        O449   1.256       .  A
C442        O443   1.262       .  A
C442        C614   1.447       .  S
C444        O446   1.258       .  A
C444        O450   1.258       .  A
C444        C630   1.429   1_554  S
C448        C529   1.519       .  S
In451       O453   2.252       .  S
In451       O454   2.240       .  S
In451       O462   2.235       .  S
In451       O456   2.290       .  S
In451       O458   2.268       .  S
In451       O459   2.236       .  S
In451       O460   2.269       .  S
In451       O463   2.298       .  S
C452        O458   1.257       .  A
C452        O460   1.260       .  A
C452        C611   1.447   1_554  S
O453        C461   1.258       .  A
O454        C461   1.257       .  A
C455        O462   1.256       .  A
C455        O456   1.264       .  A
C455        C621   1.445   1_655  S
C457        O459   1.257       .  A
C457        O463   1.265       .  A
C461        C609   1.430   1_554  S
In464       O466   2.236       .  S
In464       O467   2.236       .  S
In464       O475   2.238       .  S
In464       O469   2.281       .  S
In464       O471   2.256       .  S
In464       O472   2.238       .  S
In464       O473   2.272       .  S
In464       O476   2.292       .  S
C465        O471   1.257       .  A
C465        O473   1.263       .  A
C465        C612   1.447       .  S
O466        C474   1.260       .  A
O467        C474   1.259       .  A
C468        O475   1.256       .  A
C468        O469   1.262       .  A
C468        C627   1.444       .  S
C470        O472   1.257       .  A
C470        O476   1.265       .  A
C474        C607   1.427       .  S
In477       O479   2.238       .  S
In477       O480   2.241       .  S
In477       O488   2.233       .  S
In477       O482   2.274       .  S
In477       O484   2.245       .  S
In477       O485   2.243       .  S
In477       O486   2.258       .  S
In477       O489   2.278       .  S
C478        O484   1.256       .  A
C478        O486   1.261       .  A
C478        C606   1.438   1_554  S
O479        C487   1.260       .  A
O480        C487   1.260       .  A
C481        O488   1.256       .  A
C481        O482   1.261       .  A
C481        C631   1.439       .  S
C483        O485   1.257       .  A
C483        O489   1.262       .  A
C487        C603   1.430   1_554  S
In490       O492   2.232       .  S
In490       O493   2.243       .  S
In490       O501   2.235       .  S
In490       O495   2.279       .  S
In490       O497   2.251       .  S
In490       O498   2.248       .  S
In490       O499   2.270       .  S
In490       O502   2.286       .  S
C491        O497   1.256       .  A
C491        O499   1.262       .  A
C491        C605   1.440       .  S
O492        C500   1.259       .  A
O493        C500   1.261       .  A
C494        O501   1.257       .  A
C494        O495   1.262       .  A
C494        C616   1.444   1_655  S
C496        O498   1.258       .  A
C496        O502   1.264       .  A
C500        C610   1.430       .  S
In503       O505   2.243       .  S
In503       O506   2.242       .  S
In503       O514   2.226       .  S
In503       O508   2.281       .  S
In503       O510   2.261       .  S
In503       O511   2.236       .  S
In503       O512   2.268       .  S
In503       O515   2.292       .  S
C504        O510   1.256       .  A
C504        O512   1.260       .  A
C504        C601   1.443       .  S
O505        C513   1.258       .  A
O506        C513   1.259       .  A
C507        O514   1.256       .  A
C507        O508   1.263       .  A
C507        C619   1.440       .  S
C509        O511   1.260       .  A
C509        O515   1.265       .  A
C513        C604   1.430       .  S
In516       O518   2.240       .  S
In516       O519   2.245       .  S
In516       O527   2.240       .  S
In516       O521   2.283       .  S
In516       O523   2.256       .  S
In516       O524   2.227       .  S
In516       O525   2.260       .  S
In516       O528   2.286       .  S
C517        O523   1.258       .  A
C517        O525   1.262       .  A
C517        C602   1.442   1_554  S
O518        C526   1.258       .  A
O519        C526   1.258       .  A
C520        O527   1.256       .  A
C520        O521   1.263       .  A
C520        C613   1.446       .  S
C522        O524   1.258       .  A
C522        O528   1.266       .  A
C526        C608   1.427   1_554  S
C529        C530   1.579       .  S
C529        C535   1.585       .  S
C529        C533   1.577       .  S
C530        H537   1.085       .  S
C530        C531   1.372       .  D
C531        C532   1.507       .  S
C531        C558   1.557       .  S
C532        C536   1.534       .  S
C532        C534   1.561       .  S
C532        H538   0.999       .  S
C533        H539   1.085       .  S
C533        C534   1.363       .  D
C534        C579   1.552       .  S
C535        H540   1.085       .  S
C535        C536   1.377       .  D
C536        C548   1.582       .  S
C541        C542   1.578       .  S
C541        C547   1.585       .  S
C541        C545   1.570       .  S
C542        H549   1.085       .  S
C542        C543   1.360       .  D
C543        C544   1.505       .  S
C543        C594   1.548       .  S
C544        C548   1.539       .  S
C544        C546   1.564       .  S
C544        H550   1.005       .  S
C545        H551   1.085       .  S
C545        C546   1.369       .  D
C546        C567   1.551       .  S
C547        H552   1.085       .  S
C547        C548   1.378       .  D
C553        C554   1.576       .  S
C553        C559   1.584       .  S
C553        C557   1.576       .  S
C554        H561   1.085       .  S
C554        C555   1.366       .  D
C555        C556   1.497       .  S
C555        C582   1.544       .  S
C556        C560   1.532       .  S
C556        C558   1.560       .  S
C556        H562   0.993       .  S
C557        H563   1.085       .  S
C557        C558   1.371       .  D
C559        H564   1.085       .  S
C559        C560   1.375       .  D
C560        C572   1.574       .  S
C565        C566   1.581       .  S
C565        C571   1.581       .  S
C565        C569   1.571       .  S
C566        H573   1.085       .  S
C566        C567   1.368       .  D
C567        C568   1.501       .  S
C568        C572   1.535       .  S
C568        C570   1.560       .  S
C568        H574   0.993       .  S
C569        H575   1.085       .  S
C569        C570   1.368       .  D
C570        C591   1.552       .  S
C571        H576   1.085       .  S
C571        C572   1.373       .  D
C577        C578   1.577       .  S
C577        C583   1.583       .  S
C577        C581   1.572       .  S
C578        H585   1.085       .  S
C578        C579   1.372       .  D
C579        C580   1.502       .  S
C580        C584   1.538       .  S
C580        C582   1.560       .  S
C580        H586   1.007       .  S
C581        H587   1.085       .  S
C581        C582   1.360       .  D
C583        H588   1.085       .  S
C583        C584   1.376       .  D
C584        C596   1.577       .  S
C589        C590   1.582       .  S
C589        C595   1.585       .  S
C589        C593   1.571       .  S
C590        H597   1.085       .  S
C590        C591   1.365       .  D
C591        C592   1.501       .  S
C592        C596   1.531       .  S
C592        C594   1.556       .  S
C592        H598   0.998       .  S
C593        H599   1.085       .  S
C593        C594   1.372       .  D
C595        H600   1.085       .  S
C595        C596   1.376       .  D
C601        C602   1.210       .  T
C603        C604   1.202       .  T
C605        C606   1.208       .  T
C607        C608   1.201       .  T
C609        C610   1.203       .  T
C611        C612   1.213       .  T
C613        C614   1.213       .  T
C615        C616   1.211       .  T
C617        C618   1.213       .  T
C619        C620   1.209   1_545  T
C621        C622   1.211       .  T
C623        C624   1.204       .  T
C625        C626   1.211       .  T
C627        C628   1.212       .  T
C629        C630   1.202       .  T
C631        C632   1.208   1_545  T
C633        C634   1.211       .  T
C635        C636   1.203       .  T
C637        C638   1.210       .  T
C639        C640   1.203       .  T
C641        C642   1.211       .  T
C643        C644   1.202       .  T
C645        C646   1.202       .  T
C647        C648   1.210       .  T
C649        C650   1.211       .  T
C651        C652   1.208       .  T
C653        C654   1.212       .  T
C655        C656   1.208       .  T
C657        C658   1.203       .  T
C659        C660   1.210   1_545  T
C661        C662   1.212       .  T
C663        C664   1.209       .  T
C665        C666   1.204       .  T
C667        C668   1.210   1_545  T
C669        C670   1.202       .  T
C671        C672   1.212       .  T
