geometry optimzed in LAMMPS
_audit_creation_date              2020-12-01 
_audit_creation_method            'lammps2cif' 
_symmetry_space_group_name_H-M    'P1' 
_symmetry_Int_Tables_number       1 
_symmetry_cell_setting            triclinic 
loop_ 
_symmetry_equiv_pos_as_xyz 
  x,y,z 
_cell_length_a                    35.6032026 
_cell_length_b                    21.485082468006535 
_cell_length_c                    33.807513368022796 
_cell_angle_alpha                 89.97980947243633 
_cell_angle_beta                  88.16424890559236 
_cell_angle_gamma                 89.89744377368278 
loop_ 
_atom_site_label 
_atom_site_type_symbol 
_atom_site_fract_x 
_atom_site_fract_y 
_atom_site_fract_z 
_atom_site_charge 
C1          C  0.65407039  0.22811987  0.19597982     0.88400
C2          C  0.67946313  0.28511444  0.20073999    -0.51800
C3          C  0.69833348  0.28477548  0.23525452     0.11400
C4          C  0.69008074  0.22798791  0.26175029     0.22300
C5          C  0.68003926  0.17164638  0.20038688    -0.52500
C6          C  0.69886567  0.17183488  0.23489932     0.11500
C7          C  0.62817427  0.22750594  0.23309493    -0.52100
C8          C  0.64710609  0.22739309  0.26749255     0.12000
H9          H  0.68244178  0.32194497  0.17883882     0.16600
H10         H  0.70548118  0.22787369  0.28984304     0.02300
H11         H  0.68328044  0.13508041  0.17833940     0.16900
H12         H  0.59768754  0.22695425  0.23226421     0.16700
C13         C  0.81899120  0.47787271  0.29978297     0.88400
C14         C  0.79310730  0.03467205  0.29630075    -0.51800
C15         C  0.77287773  0.03438492  0.26271036     0.11400
C16         C  0.78029312  0.47783954  0.23579615     0.22300
C17         C  0.79311867  0.42115041  0.29642612    -0.52500
C18         C  0.77285442  0.42141061  0.26282626     0.11500
C19         C  0.84338666  0.47777227  0.26157749    -0.52100
C20         C  0.82303222  0.47778982  0.22812230     0.12000
H21         H  0.79099707  0.07157224  0.31823333     0.16600
H22         H  0.76376425  0.47788115  0.20844579     0.02300
H23         H  0.79096192  0.38444036  0.31848881     0.16900
H24         H  0.87392347  0.47796210  0.26101753     0.16700
C25         C  0.32222333  0.23811648  0.21053393     0.88400
C26         C  0.29584537  0.18211279  0.21464954    -0.51800
C27         C  0.27440878  0.18245154  0.24879971     0.11400
C28         C  0.28122742  0.23879497  0.27574719     0.22300
C29         C  0.29668926  0.29533310  0.21476655    -0.52500
C30         C  0.27520092  0.29568620  0.24891143     0.11500
C31         C  0.34533404  0.23737370  0.24793582    -0.52100
C32         C  0.32386941  0.23766261  0.28207359     0.12000
H33         H  0.29398847  0.14581909  0.19241574     0.16600
H34         H  0.26366843  0.23901999  0.30352486     0.02300
H35         H  0.29524132  0.33169791  0.19251267     0.16900
H36         H  0.37586403  0.23631614  0.24749620     0.16700
C37         C  0.14766650  0.48900205  0.21990202     0.88400
C38         C  0.17350727  0.04575569  0.22147987    -0.51800
C39         C  0.19603293  0.04579535  0.25334142     0.11400
C40         C  0.19068380  0.48906000  0.28079972     0.22300
C41         C  0.17391685  0.43255983  0.22132320    -0.52500
C42         C  0.19646116  0.43257652  0.25318825     0.11500
C43         C  0.12577786  0.48872723  0.25959524    -0.52100
C44         C  0.14828556  0.48878320  0.29148667     0.12000
H45         H  0.17436176  0.08211944  0.19911447     0.16600
H46         H  0.20910721  0.48911596  0.30672106     0.02300
H47         H  0.17501927  0.39637792  0.19885700     0.16900
H48         H  0.09527721  0.48863514  0.26227390     0.16700
O49         O  0.02159922  0.03939866  0.05142284    -0.71000
O50         O  0.94580871  0.03592604  0.46593099    -0.72000
O51         O  0.94215014  0.03601657  0.05012486    -0.60600
O52         O  0.02557765  0.03933548  0.46719458    -0.69000
O53         O  0.02723882  0.43591081  0.46730973    -0.68600
O54         O  0.94388442  0.43258129  0.05015751    -0.59800
O55         O  0.94755326  0.43249898  0.46604399    -0.72300
O56         O  0.02326749  0.43595537  0.05144840    -0.71100
Cu57       Cu  0.98373093  0.04134223  0.00861692     1.04600
Cu58       Cu  0.98555442  0.43061177  0.00869438     1.04300
C59         C  0.03396509  0.48816485  0.06506950     0.95400
C60         C  0.93482264  0.48363988  0.45264737     0.94300
C61         C  0.93027403  0.48376391  0.06339375     0.86500
C62         C  0.03939255  0.48810361  0.45423420     0.92800
O63         O  0.52815106  0.27817411  0.02910615    -0.71000
O64         O  0.44646911  0.28024021  0.44996981    -0.72000
O65         O  0.44865079  0.28125802  0.03392932    -0.60600
O66         O  0.52616601  0.27712688  0.44513665    -0.69000
O67         O  0.52490897  0.17369302  0.44565405    -0.68600
O68         O  0.44727787  0.17781896  0.03459955    -0.59800
O69         O  0.44507398  0.17681486  0.45049927    -0.72300
O70         O  0.52689765  0.17473728  0.02977300    -0.71100
Cu71       Cu  0.48740361  0.28280806  0.48948668     1.04600
Cu72       Cu  0.48598814  0.17207759  0.49012736     1.04300
C73         C  0.54007960  0.22620423  0.04205452     0.95200
C74         C  0.43306941  0.22890828  0.43776771     0.94300
C75         C  0.43608300  0.23021695  0.04836360     0.86500
C76         C  0.53760106  0.22483936  0.43144197     0.92800
C77         C  0.13259910  0.48896476  0.33132771    -0.16600
C78         C  0.11530052  0.48919597  0.36258043     0.07500
C79         C  0.09128623  0.48933351  0.39665808     0.09400
C80         C  0.06849900  0.48908781  0.42383620    -0.17400
C81         C  0.12357217  0.48908178  0.18551141    -0.16600
C82         C  0.10381445  0.48930009  0.15722780     0.07500
C83         C  0.08038764  0.48942998  0.12435402     0.09400
C84         C  0.05974559  0.48916829  0.09679603    -0.17400
C85         C  0.24774548  0.34392339  0.25695982    -0.11300
C86         C  0.22448871  0.38486972  0.25826228    -0.12900
C87         C  0.24683165  0.13474040  0.25708646    -0.11300
C88         C  0.22371822  0.09376577  0.25849418    -0.12900
C89         C  0.40458358  0.22989436  0.40864957    -0.16600
C90         C  0.38218541  0.23150220  0.38264896     0.07500
C91         C  0.35829853  0.23386896  0.35012088     0.09400
C92         C  0.34066343  0.23585655  0.32028708    -0.17400
C93         C  0.34530066  0.23740007  0.17379814    -0.16600
C94         C  0.36474679  0.23592683  0.14396829     0.07500
C95         C  0.38835979  0.23369595  0.10967343     0.09400
C96         C  0.40950482  0.23185646  0.08113896    -0.17400
C97         C  0.84130422  0.47817400  0.33555461    -0.16600
C98         C  0.86121565  0.47918355  0.36373664     0.07500
C99         C  0.88593499  0.48083436  0.39555482     0.09400
C100        C  0.90791299  0.48226823  0.42194148    -0.17400
C101        C  0.90204686  0.48251700  0.09463980    -0.16600
C102        C  0.88045392  0.48123322  0.12282818     0.07500
C103        C  0.85775357  0.47969713  0.15781802     0.09400
C104        C  0.84067020  0.47859510  0.18916903    -0.17400
C105        C  0.72494044  0.12354244  0.24504051    -0.11300
C106        C  0.74680684  0.08308347  0.25330435    -0.12900
C107        C  0.72443232  0.33295719  0.24543902    -0.11300
C108        C  0.74651058  0.37306704  0.25362730    -0.12900
C109        C  0.62788210  0.22609794  0.30565612    -0.16600
C110        C  0.60970401  0.22491178  0.33635161     0.07500
C111        C  0.58625387  0.22386687  0.37083195     0.09400
C112        C  0.56471560  0.22371549  0.39909422    -0.17400
C113        C  0.63328008  0.22793220  0.15917595    -0.16600
C114        C  0.61433763  0.22721382  0.13024502     0.07500
C115        C  0.59023446  0.22624372  0.09789118     0.09400
C116        C  0.56813605  0.22579648  0.07160471    -0.17400
C117        C  0.65407041  0.22812015  0.69597989     0.88400
C118        C  0.67946313  0.28511449  0.70074004    -0.51800
C119        C  0.69833360  0.28477529  0.73525448     0.11400
C120        C  0.69008076  0.22798790  0.76175037     0.22300
C121        C  0.68003923  0.17164659  0.70038699    -0.52500
C122        C  0.69886580  0.17183509  0.73489940     0.11500
C123        C  0.62817434  0.22750615  0.73309498    -0.52100
C124        C  0.64710611  0.22739309  0.76749263     0.12000
H125        H  0.68244212  0.32194480  0.67883868     0.16600
H126        H  0.70548147  0.22787368  0.78984305     0.02300
H127        H  0.68328037  0.13508117  0.67833960     0.16900
H128        H  0.59768760  0.22695337  0.73226429     0.16700
C129        C  0.81899122  0.47787288  0.79978302     0.88400
C130        C  0.79310727  0.03467195  0.79630080    -0.51800
C131        C  0.77287764  0.03438499  0.76271051     0.11400
C132        C  0.78029312  0.47783986  0.73579626     0.22300
C133        C  0.79311867  0.42115055  0.79642623    -0.52500
C134        C  0.77285444  0.42141083  0.76282636     0.11500
C135        C  0.84338670  0.47777229  0.76157750    -0.52100
C136        C  0.82303223  0.47778983  0.72812234     0.12000
H137        H  0.79099692  0.07157211  0.81823382     0.16600
H138        H  0.76376425  0.47788121  0.70844592     0.02300
H139        H  0.79096188  0.38444044  0.81848892     0.16900
H140        H  0.87392351  0.47796226  0.76101750     0.16700
C141        C  0.32222333  0.23811637  0.71053398     0.88400
C142        C  0.29584534  0.18211275  0.71464954    -0.51800
C143        C  0.27440878  0.18245150  0.74879970     0.11400
C144        C  0.28122745  0.23879485  0.77574727     0.22300
C145        C  0.29668923  0.29533316  0.71476671    -0.52500
C146        C  0.27520088  0.29568615  0.74891161     0.11500
C147        C  0.34533396  0.23737353  0.74793587    -0.52100
C148        C  0.32386941  0.23766267  0.78207366     0.12000
H149        H  0.29398806  0.14581925  0.69241565     0.16600
H150        H  0.26366851  0.23901960  0.80352498     0.02300
H151        H  0.29524112  0.33169784  0.69251310     0.16900
H152        H  0.37586400  0.23631636  0.74749623     0.16700
C153        C  0.14766659  0.48900200  0.71990200     0.88400
C154        C  0.17350722  0.04575574  0.72147985    -0.51800
C155        C  0.19603287  0.04579538  0.75334138     0.11400
C156        C  0.19068386  0.48905999  0.78079977     0.22300
C157        C  0.17391695  0.43255992  0.72132330    -0.52500
C158        C  0.19646128  0.43257665  0.75318830     0.11500
C159        C  0.12577799  0.48872717  0.75959518    -0.52100
C160        C  0.14828566  0.48878319  0.79148668     0.12000
H161        H  0.17436166  0.08211949  0.69911441     0.16600
H162        H  0.20910743  0.48911600  0.80672116     0.02300
H163        H  0.17501961  0.39637813  0.69885699     0.16900
H164        H  0.09527738  0.48863521  0.76227380     0.16700
O165        O  0.02159913  0.03939876  0.55142282    -0.71000
O166        O  0.94580872  0.03592609  0.96593099    -0.72000
O167        O  0.94215012  0.03601666  0.55012479    -0.60600
O168        O  0.02557769  0.03933514  0.96719459    -0.69000
O169        O  0.02723885  0.43591102  0.96730977    -0.68600
O170        O  0.94388431  0.43258132  0.55015753    -0.59800
O171        O  0.94755331  0.43249915  0.96604410    -0.72300
O172        O  0.02326743  0.43595503  0.55144850    -0.71100
Cu173      Cu  0.98373089  0.04134231  0.50861694     1.04600
Cu174      Cu  0.98555439  0.43061161  0.50869439     1.04300
C175        C  0.03396508  0.48816453  0.56506951     0.95400
C176        C  0.93482267  0.48364003  0.95264736     0.94300
C177        C  0.93027413  0.48376401  0.56339383     0.86500
C178        C  0.03939249  0.48810383  0.95423417     0.92800
O179        O  0.52815107  0.27817421  0.52910601    -0.71000
O180        O  0.44646907  0.28024030  0.94997007    -0.72000
O181        O  0.44865081  0.28125793  0.53392911    -0.60600
O182        O  0.52616597  0.27712690  0.94513676    -0.69000
O183        O  0.52490897  0.17369301  0.94565399    -0.68600
O184        O  0.44727789  0.17781920  0.53459957    -0.59800
O185        O  0.44507393  0.17681486  0.95049924    -0.72300
O186        O  0.52689765  0.17473743  0.52977300    -0.71100
Cu187      Cu  0.48740360  0.28280813  0.98948677     1.04600
Cu188      Cu  0.48598815  0.17207757  0.99012733     1.04300
C189        C  0.54007957  0.22620439  0.54205450     0.95200
C190        C  0.43306946  0.22890839  0.93776773     0.94300
C191        C  0.43608299  0.23021706  0.54836354     0.86500
C192        C  0.53760101  0.22483943  0.93144199     0.92800
C193        C  0.13259920  0.48896487  0.83132772    -0.16600
C194        C  0.11530051  0.48919609  0.86258039     0.07500
C195        C  0.09128635  0.48933363  0.89665821     0.09400
C196        C  0.06849900  0.48908798  0.92383625    -0.17400
C197        C  0.12357216  0.48908172  0.68551142    -0.16600
C198        C  0.10381452  0.48930023  0.65722777     0.07500
C199        C  0.08038765  0.48943007  0.62435411     0.09400
C200        C  0.05974552  0.48916795  0.59679619    -0.17400
C201        C  0.24774551  0.34392352  0.75695992    -0.11300
C202        C  0.22448866  0.38486971  0.75826231    -0.12900
C203        C  0.24683158  0.13474046  0.75708642    -0.11300
C204        C  0.22371812  0.09376584  0.75849415    -0.12900
C205        C  0.40458367  0.22989443  0.90864950    -0.16600
C206        C  0.38218541  0.23150231  0.88264897     0.07500
C207        C  0.35829859  0.23386910  0.85012088     0.09400
C208        C  0.34066347  0.23585651  0.82028711    -0.17400
C209        C  0.34530065  0.23740002  0.67379814    -0.16600
C210        C  0.36474674  0.23592694  0.64396825     0.07500
C211        C  0.38835975  0.23369581  0.60967340     0.09400
C212        C  0.40950479  0.23185643  0.58113892    -0.17400
C213        C  0.84130433  0.47817400  0.83555455    -0.16600
C214        C  0.86121573  0.47918364  0.86373660     0.07500
C215        C  0.88593506  0.48083451  0.89555477     0.09400
C216        C  0.90791306  0.48226838  0.92194143    -0.17400
C217        C  0.90204678  0.48251701  0.59463985    -0.16600
C218        C  0.88045390  0.48123327  0.62282829     0.07500
C219        C  0.85775350  0.47969728  0.65781801     0.09400
C220        C  0.84067014  0.47859518  0.68916900    -0.17400
C221        C  0.72494045  0.12354233  0.74504049    -0.11300
C222        C  0.74680687  0.08308348  0.75330439    -0.12900
C223        C  0.72443230  0.33295721  0.74543899    -0.11300
C224        C  0.74651062  0.37306705  0.75362730    -0.12900
C225        C  0.62788218  0.22609803  0.80565616    -0.16600
C226        C  0.60970408  0.22491191  0.83635164     0.07500
C227        C  0.58625382  0.22386700  0.87083195     0.09400
C228        C  0.56471561  0.22371566  0.89909429    -0.17400
C229        C  0.63328008  0.22793221  0.65917598    -0.16600
C230        C  0.61433760  0.22721391  0.63024505     0.07500
C231        C  0.59023441  0.22624386  0.59789119     0.09400
C232        C  0.56813599  0.22579665  0.57160472    -0.17400
C233        C  0.65407023  0.72812003  0.19597987     0.88400
C234        C  0.67946299  0.78511448  0.20074009    -0.51800
C235        C  0.69833341  0.78477548  0.23525458     0.11400
C236        C  0.69008066  0.72798803  0.26175032     0.22300
C237        C  0.68003923  0.67164662  0.20038694    -0.52500
C238        C  0.69886572  0.67183520  0.23489934     0.11500
C239        C  0.62817419  0.72750597  0.23309494    -0.52100
C240        C  0.64710595  0.72739302  0.26749253     0.12000
H241        H  0.68244165  0.82194501  0.17883890     0.16600
H242        H  0.70548110  0.72787398  0.28984305     0.02300
H243        H  0.68328089  0.63508142  0.17833939     0.16900
H244        H  0.59768709  0.72695406  0.23226423     0.16700
C245        C  0.81899128  0.97787269  0.29978291     0.88400
C246        C  0.79310722  0.53467201  0.29630084    -0.51800
C247        C  0.77287766  0.53438495  0.26271045     0.11400
C248        C  0.78029317  0.97783957  0.23579614     0.22300
C249        C  0.79311872  0.92115029  0.29642616    -0.52500
C250        C  0.77285449  0.92141055  0.26282626     0.11500
C251        C  0.84338675  0.97777226  0.26157744    -0.52100
C252        C  0.82303227  0.97778956  0.22812229     0.12000
H253        H  0.79099705  0.57157264  0.31823354     0.16600
H254        H  0.76376427  0.97788149  0.20844582     0.02300
H255        H  0.79096186  0.88444028  0.31848888     0.16900
H256        H  0.87392356  0.97796172  0.26101745     0.16700
C257        C  0.32222331  0.73811621  0.21053397     0.88400
C258        C  0.29584541  0.68211267  0.21464959    -0.51800
C259        C  0.27440881  0.68245145  0.24879976     0.11400
C260        C  0.28122741  0.73879484  0.27574726     0.22300
C261        C  0.29668919  0.79533281  0.21476665    -0.52500
C262        C  0.27520080  0.79568597  0.24891156     0.11500
C263        C  0.34533397  0.73737361  0.24793585    -0.52100
C264        C  0.32386936  0.73766276  0.28207368     0.12000
H265        H  0.29398856  0.64581892  0.19241579     0.16600
H266        H  0.26366821  0.73901909  0.30352492     0.02300
H267        H  0.29524126  0.83169719  0.19251288     0.16900
H268        H  0.37586395  0.73631673  0.24749620     0.16700
C269        C  0.14766653  0.98900213  0.21990198     0.88400
C270        C  0.17350721  0.54575559  0.22147987    -0.51800
C271        C  0.19603285  0.54579529  0.25334147     0.11400
C272        C  0.19068381  0.98905998  0.28079970     0.22300
C273        C  0.17391690  0.93256002  0.22132314    -0.52500
C274        C  0.19646122  0.93257664  0.25318817     0.11500
C275        C  0.12577787  0.98872727  0.25959522    -0.52100
C276        C  0.14828557  0.98878325  0.29148665     0.12000
H277        H  0.17436177  0.58211872  0.19911438     0.16600
H278        H  0.20910722  0.98911539  0.30672105     0.02300
H279        H  0.17501926  0.89637814  0.19885689     0.16900
H280        H  0.09527723  0.98863468  0.26227390     0.16700
O281        O  0.02159912  0.53939890  0.05142281    -0.71000
O282        O  0.94580875  0.53592617  0.46593107    -0.72000
O283        O  0.94214999  0.53601680  0.05012485    -0.60600
O284        O  0.02557761  0.53933517  0.46719457    -0.69000
O285        O  0.02723885  0.93591108  0.46730974    -0.68600
O286        O  0.94388443  0.93258129  0.05015756    -0.59800
O287        O  0.94755335  0.93249906  0.46604408    -0.72300
O288        O  0.02326745  0.93595502  0.05144839    -0.71100
Cu289      Cu  0.98373089  0.54134234  0.00861689     1.04600
Cu290      Cu  0.98555444  0.93061170  0.00869440     1.04300
C291        C  0.03396517  0.98816453  0.06506944     0.95400
C292        C  0.93482271  0.98363980  0.45264732     0.94300
C293        C  0.93027406  0.98376387  0.06339375     0.86500
C294        C  0.03939256  0.98810390  0.45423419     0.92800
O295        O  0.52815105  0.77817427  0.02910610    -0.71000
O296        O  0.44646910  0.78024022  0.44997001    -0.72000
O297        O  0.44865081  0.78125788  0.03392935    -0.60600
O298        O  0.52616605  0.77712658  0.44513682    -0.69000
O299        O  0.52490882  0.67369302  0.44565404    -0.68600
O300        O  0.44727788  0.67781887  0.03459955    -0.59800
O301        O  0.44507386  0.67681485  0.45049934    -0.72300
O302        O  0.52689767  0.67473747  0.02977301    -0.71100
Cu303      Cu  0.48740362  0.78280811  0.48948675     1.04600
Cu304      Cu  0.48598809  0.67207759  0.49012736     1.04300
C305        C  0.54007951  0.72620444  0.04205462     0.95200
C306        C  0.43306949  0.72890839  0.43776768     0.94300
C307        C  0.43608302  0.73021681  0.04836365     0.86500
C308        C  0.53760104  0.72483926  0.43144203     0.92800
C309        C  0.13259914  0.98896483  0.33132771    -0.16600
C310        C  0.11530056  0.98919628  0.36258043     0.07500
C311        C  0.09128626  0.98933382  0.39665810     0.09400
C312        C  0.06849902  0.98908811  0.42383621    -0.17400
C313        C  0.12357220  0.98908166  0.18551142    -0.16600
C314        C  0.10381450  0.98930013  0.15722781     0.07500
C315        C  0.08038768  0.98942982  0.12435403     0.09400
C316        C  0.05974556  0.98916810  0.09679609    -0.17400
C317        C  0.24774551  0.84392338  0.25695983    -0.11300
C318        C  0.22448870  0.88486965  0.25826223    -0.12900
C319        C  0.24683164  0.63474031  0.25708644    -0.11300
C320        C  0.22371821  0.59376562  0.25849415    -0.12900
C321        C  0.40458357  0.72989482  0.40864957    -0.16600
C322        C  0.38218534  0.73150210  0.38264899     0.07500
C323        C  0.35829854  0.73386920  0.35012088     0.09400
C324        C  0.34066332  0.73585643  0.32028716    -0.17400
C325        C  0.34530067  0.73740006  0.17379807    -0.16600
C326        C  0.36474674  0.73592668  0.14396819     0.07500
C327        C  0.38835973  0.73369574  0.10967341     0.09400
C328        C  0.40950483  0.73185628  0.08113903    -0.17400
C329        C  0.84130430  0.97817403  0.33555458    -0.16600
C330        C  0.86121570  0.97918360  0.36373666     0.07500
C331        C  0.88593505  0.98083444  0.39555485     0.09400
C332        C  0.90791306  0.98226825  0.42194149    -0.17400
C333        C  0.90204682  0.98251714  0.09463970    -0.16600
C334        C  0.88045395  0.98123307  0.12282814     0.07500
C335        C  0.85775352  0.97969714  0.15781796     0.09400
C336        C  0.84067022  0.97859503  0.18916902    -0.17400
C337        C  0.72494039  0.62354248  0.24504042    -0.11300
C338        C  0.74680683  0.58308355  0.25330429    -0.12900
C339        C  0.72443235  0.83295712  0.24543907    -0.11300
C340        C  0.74651055  0.87306712  0.25362729    -0.12900
C341        C  0.62788210  0.72609798  0.30565612    -0.16600
C342        C  0.60970405  0.72491184  0.33635164     0.07500
C343        C  0.58625388  0.72386699  0.37083198     0.09400
C344        C  0.56471561  0.72371572  0.39909426    -0.17400
C345        C  0.63328008  0.72793213  0.15917589    -0.16600
C346        C  0.61433765  0.72721404  0.13024496     0.07500
C347        C  0.59023441  0.72624353  0.09789124     0.09400
C348        C  0.56813606  0.72579667  0.07160473    -0.17400
C349        C  0.65407036  0.72812023  0.69597988     0.88400
C350        C  0.67946308  0.78511462  0.70074007    -0.51800
C351        C  0.69833348  0.78477549  0.73525452     0.11400
C352        C  0.69008076  0.72798808  0.76175032     0.22300
C353        C  0.68003928  0.67164679  0.70038689    -0.52500
C354        C  0.69886581  0.67183523  0.73489931     0.11500
C355        C  0.62817425  0.72750610  0.73309495    -0.52100
C356        C  0.64710606  0.72739315  0.76749257     0.12000
H357        H  0.68244172  0.82194520  0.67883892     0.16600
H358        H  0.70548128  0.72787409  0.78984299     0.02300
H359        H  0.68328050  0.63508152  0.67833939     0.16900
H360        H  0.59768746  0.72695417  0.73226426     0.16700
C361        C  0.81899126  0.97787262  0.79978296     0.88400
C362        C  0.79310719  0.53467225  0.79630083    -0.51800
C363        C  0.77287756  0.53438520  0.76271059     0.11400
C364        C  0.78029314  0.97783973  0.73579622     0.22300
C365        C  0.79311871  0.92115038  0.79642615    -0.52500
C366        C  0.77285445  0.92141069  0.76282630     0.11500
C367        C  0.84338671  0.97777214  0.76157748    -0.52100
C368        C  0.82303225  0.97778978  0.72812232     0.12000
H369        H  0.79099692  0.57157303  0.81823378     0.16600
H370        H  0.76376424  0.97788138  0.70844590     0.02300
H371        H  0.79096193  0.88444027  0.81848881     0.16900
H372        H  0.87392352  0.97796196  0.76101751     0.16700
C373        C  0.32222337  0.73811615  0.71053403     0.88400
C374        C  0.29584534  0.68211261  0.71464958    -0.51800
C375        C  0.27440877  0.68245142  0.74879975     0.11400
C376        C  0.28122741  0.73879477  0.77574729     0.22300
C377        C  0.29668926  0.79533278  0.71476670    -0.52500
C378        C  0.27520090  0.79568592  0.74891166     0.11500
C379        C  0.34533406  0.73737354  0.74793586    -0.52100
C380        C  0.32386941  0.73766255  0.78207365     0.12000
H381        H  0.29398808  0.64581903  0.69241572     0.16600
H382        H  0.26366838  0.73901979  0.80352496     0.02300
H383        H  0.29524119  0.83169704  0.69251320     0.16900
H384        H  0.37586405  0.73631623  0.74749624     0.16700
C385        C  0.14766650  0.98900222  0.71990197     0.88400
C386        C  0.17350728  0.54575550  0.72147988    -0.51800
C387        C  0.19603294  0.54579525  0.75334150     0.11400
C388        C  0.19068378  0.98906010  0.78079969     0.22300
C389        C  0.17391688  0.93256005  0.72132314    -0.52500
C390        C  0.19646118  0.93257673  0.75318818     0.11500
C391        C  0.12577784  0.98872727  0.75959521    -0.52100
C392        C  0.14828555  0.98878327  0.79148663     0.12000
H393        H  0.17436177  0.58211867  0.69911445     0.16600
H394        H  0.20910720  0.98911616  0.80672104     0.02300
H395        H  0.17501931  0.89637812  0.69885697     0.16900
H396        H  0.09527719  0.98863526  0.76227388     0.16700
O397        O  0.02159911  0.53939858  0.55142273    -0.71000
O398        O  0.94580862  0.53592639  0.96593105    -0.72000
O399        O  0.94215019  0.53601681  0.55012479    -0.60600
O400        O  0.02557758  0.53933542  0.96719456    -0.69000
O401        O  0.02723881  0.93591094  0.96730984    -0.68600
O402        O  0.94388434  0.93258114  0.55015754    -0.59800
O403        O  0.94755333  0.93249884  0.96604406    -0.72300
O404        O  0.02326743  0.93595514  0.55144842    -0.71100
Cu405      Cu  0.98373089  0.54134217  0.50861693     1.04600
Cu406      Cu  0.98555443  0.93061177  0.50869440     1.04300
C407        C  0.03396507  0.98816465  0.56506950     0.95400
C408        C  0.93482269  0.98363974  0.95264735     0.94300
C409        C  0.93027406  0.98376384  0.56339377     0.86500
C410        C  0.03939247  0.98810363  0.95423412     0.92800
O411        O  0.52815111  0.77817427  0.52910617    -0.71000
O412        O  0.44646906  0.78024004  0.94996999    -0.72000
O413        O  0.44865083  0.78125793  0.53392931    -0.60600
O414        O  0.52616602  0.77712672  0.94513676    -0.69000
O415        O  0.52490895  0.67369315  0.94565403    -0.68600
O416        O  0.44727777  0.67781891  0.53459954    -0.59800
O417        O  0.44507397  0.67681470  0.95049925    -0.72300
O418        O  0.52689756  0.67473723  0.52977302    -0.71100
Cu419      Cu  0.48740363  0.78280809  0.98948674     1.04600
Cu420      Cu  0.48598813  0.67207763  0.99012734     1.04300
C421        C  0.54007957  0.72620425  0.54205452     0.95200
C422        C  0.43306941  0.72890819  0.93776775     0.94300
C423        C  0.43608297  0.73021691  0.54836360     0.86500
C424        C  0.53760106  0.72483942  0.93144198     0.92800
C425        C  0.13259910  0.98896498  0.83132768    -0.16600
C426        C  0.11530051  0.98919620  0.86258040     0.07500
C427        C  0.09128622  0.98933369  0.89665808     0.09400
C428        C  0.06849903  0.98908794  0.92383624    -0.17400
C429        C  0.12357216  0.98908167  0.68551143    -0.16600
C430        C  0.10381446  0.98930022  0.65722783     0.07500
C431        C  0.08038767  0.98942991  0.62435406     0.09400
C432        C  0.05974553  0.98916812  0.59679613    -0.17400
C433        C  0.24774549  0.84392345  0.75695989    -0.11300
C434        C  0.22448865  0.88486978  0.75826223    -0.12900
C435        C  0.24683166  0.63474039  0.75708644    -0.11300
C436        C  0.22371820  0.59376581  0.75849411    -0.12900
C437        C  0.40458359  0.72989458  0.90864957    -0.16600
C438        C  0.38218541  0.73150222  0.88264895     0.07500
C439        C  0.35829852  0.73386935  0.85012089     0.09400
C440        C  0.34066342  0.73585651  0.82028709    -0.17400
C441        C  0.34530064  0.73740007  0.67379816    -0.16600
C442        C  0.36474676  0.73592678  0.64396830     0.07500
C443        C  0.38835977  0.73369588  0.60967344     0.09400
C444        C  0.40950479  0.73185644  0.58113896    -0.17400
C445        C  0.84130427  0.97817381  0.83555461    -0.16600
C446        C  0.86121567  0.97918345  0.86373668     0.07500
C447        C  0.88593500  0.98083436  0.89555486     0.09400
C448        C  0.90791301  0.98226823  0.92194150    -0.17400
C449        C  0.90204681  0.98251700  0.59463982    -0.16600
C450        C  0.88045386  0.98123316  0.62282821     0.07500
C451        C  0.85775353  0.97969728  0.65781804     0.09400
C452        C  0.84067017  0.97859502  0.68916903    -0.17400
C453        C  0.72494041  0.62354244  0.74504042    -0.11300
C454        C  0.74680687  0.58308370  0.75330435    -0.12900
C455        C  0.72443227  0.83295718  0.74543901    -0.11300
C456        C  0.74651060  0.87306702  0.75362724    -0.12900
C457        C  0.62788215  0.72609810  0.80565614    -0.16600
C458        C  0.60970411  0.72491196  0.83635166     0.07500
C459        C  0.58625385  0.72386711  0.87083197     0.09400
C460        C  0.56471564  0.72371589  0.89909429    -0.17400
C461        C  0.63328007  0.72793227  0.65917597    -0.16600
C462        C  0.61433763  0.72721394  0.63024503     0.07500
C463        C  0.59023446  0.72624363  0.59789118     0.09400
C464        C  0.56813605  0.72579647  0.57160470    -0.17400
loop_ 
_geom_bond_atom_site_label_1 
_geom_bond_atom_site_label_2 
_geom_bond_distance 
_geom_bond_site_symmetry_2 
_ccdc_geom_bond_type 
C1            C2   1.535       .  S
C1            C7   1.533       .  S
C1            C5   1.534       .  S
C1          C113   1.468       .  S
C2            H9   1.087       .  S
C2            C3   1.365       .  D
C3            C4   1.537       .  S
C3          C107   1.441       .  S
C4            C8   1.536       .  S
C4            C6   1.536       .  S
C4           H10   1.112       .  S
C5           H11   1.087       .  S
C5            C6   1.364       .  D
C6          C105   1.440       .  S
C7           H12   1.087       .  S
C7            C8   1.363       .  D
C8          C109   1.441       .  S
C13          C19   1.533       .  S
C13          C17   1.535       .  S
C13         C246   1.535       .  S
C13          C97   1.468       .  S
C14         C245   1.535   1_545  S
C14          H21   1.087       .  S
C14          C15   1.364       .  D
C15         C248   1.536   1_545  S
C15         C106   1.440       .  S
C16          C20   1.535       .  S
C16          C18   1.536       .  S
C16         C247   1.536       .  S
C16          H22   1.112       .  S
C17          H23   1.086       .  S
C17          C18   1.365       .  D
C18         C108   1.441       .  S
C19          H24   1.087       .  S
C19          C20   1.363       .  D
C20         C104   1.441       .  S
C25          C26   1.531       .  S
C25          C31   1.531       .  S
C25          C29   1.532       .  S
C25          C93   1.467       .  S
C26          H33   1.087       .  S
C26          C27   1.363       .  D
C27          C28   1.540       .  S
C27          C87   1.442       .  S
C28          C32   1.540       .  S
C28          C30   1.541       .  S
C28          H34   1.111       .  S
C29          H35   1.087       .  S
C29          C30   1.364       .  D
C30          C85   1.443       .  S
C31          H36   1.087       .  S
C31          C32   1.364       .  D
C32          C92   1.441       .  S
C37          C43   1.530       .  S
C37          C41   1.531       .  S
C37         C270   1.531       .  S
C37          C81   1.467       .  S
C38         C269   1.531   1_545  S
C38          H45   1.087       .  S
C38          C39   1.363       .  D
C39         C272   1.540   1_545  S
C39          C88   1.442       .  S
C40          C44   1.541       .  S
C40          C42   1.541       .  S
C40         C271   1.540       .  S
C40          H46   1.111       .  S
C41          H47   1.087       .  S
C41          C42   1.364       .  D
C42          C86   1.443       .  S
C43          H48   1.087       .  S
C43          C44   1.364       .  D
C44          C77   1.442       .  S
O49         Cu57   2.010   1_455  S
O49         C291   1.276   1_545  A
O50        Cu173   2.011       .  S
O50         C292   1.277   1_545  A
O51         Cu57   2.010       .  S
O51         C293   1.277   1_545  A
O52        Cu173   2.012   1_455  S
O52         C294   1.277   1_545  A
O53        Cu174   2.010   1_455  S
O53          C62   1.276       .  A
O54         Cu58   2.009       .  S
O54          C61   1.276       .  A
O55        Cu174   2.009       .  S
O55          C60   1.276       .  A
O56         Cu58   2.008   1_455  S
O56          C59   1.276       .  A
Cu57        O166   2.011   1_554  S
Cu57        O168   2.012   1_654  S
Cu57       Cu290   2.380   1_545  S
Cu58        O169   2.010   1_654  S
Cu58        O171   2.009   1_554  S
Cu58       Cu289   2.380       .  S
C59         O281   1.276       .  A
C59          C84   1.434       .  S
C60         O282   1.277       .  A
C60         C100   1.435       .  S
C61         O283   1.277       .  A
C61         C101   1.435       .  S
C62         O284   1.277       .  A
C62          C80   1.436       .  S
O63        Cu187   2.008   1_554  S
O63          C73   1.276       .  A
O64         Cu71   2.009       .  S
O64          C74   1.276       .  A
O65        Cu187   2.007   1_554  S
O65          C75   1.276       .  A
O66         Cu71   2.009       .  S
O66          C76   1.276       .  A
O67         Cu72   2.012       .  S
O67          C76   1.277       .  A
O68        Cu188   2.010   1_554  S
O68          C75   1.277       .  A
O69         Cu72   2.013       .  S
O69          C74   1.277       .  A
O70        Cu188   2.012   1_554  S
O70          C73   1.277       .  A
Cu71        O179   2.008       .  S
Cu71        O181   2.007       .  S
Cu71        Cu72   2.380       .  S
Cu72        O184   2.010       .  S
Cu72        O186   2.012       .  S
C73         C116   1.435       .  S
C74          C89   1.436       .  S
C75          C96   1.434       .  S
C76         C112   1.436       .  S
C77          C78   1.206       .  T
C78          C79   1.413       .  S
C79          C80   1.206       .  T
C81          C82   1.205       .  T
C82          C83   1.411       .  S
C83          C84   1.205       .  T
C85          C86   1.207       .  T
C87          C88   1.206       .  T
C89          C90   1.206       .  T
C90          C91   1.412       .  S
C91          C92   1.206       .  T
C93          C94   1.205       .  T
C94          C95   1.411       .  S
C95          C96   1.205       .  T
C97          C98   1.206       .  T
C98          C99   1.412       .  S
C99         C100   1.206       .  T
C101        C102   1.205       .  T
C102        C103   1.412       .  S
C103        C104   1.205       .  T
C105        C106   1.205       .  T
C107        C108   1.206       .  T
C109        C110   1.206       .  T
C110        C111   1.412       .  S
C111        C112   1.206       .  T
C113        C114   1.206       .  T
C114        C115   1.412       .  S
C115        C116   1.206       .  T
C117        C118   1.535       .  S
C117        C123   1.533       .  S
C117        C121   1.534       .  S
C117        C229   1.468       .  S
C118        H125   1.087       .  S
C118        C119   1.365       .  D
C119        C120   1.537       .  S
C119        C223   1.441       .  S
C120        C124   1.536       .  S
C120        C122   1.536       .  S
C120        H126   1.112       .  S
C121        H127   1.087       .  S
C121        C122   1.364       .  D
C122        C221   1.440       .  S
C123        H128   1.087       .  S
C123        C124   1.363       .  D
C124        C225   1.441       .  S
C129        C362   1.535       .  S
C129        C135   1.533       .  S
C129        C133   1.535       .  S
C129        C213   1.468       .  S
C130        C361   1.535   1_545  S
C130        H137   1.087       .  S
C130        C131   1.364       .  D
C131        C364   1.536   1_545  S
C131        C222   1.440       .  S
C132        C363   1.536       .  S
C132        C136   1.535       .  S
C132        C134   1.536       .  S
C132        H138   1.112       .  S
C133        H139   1.086       .  S
C133        C134   1.365       .  D
C134        C224   1.441       .  S
C135        H140   1.087       .  S
C135        C136   1.363       .  D
C136        C220   1.441       .  S
C141        C142   1.531       .  S
C141        C147   1.531       .  S
C141        C145   1.532       .  S
C141        C209   1.467       .  S
C142        H149   1.087       .  S
C142        C143   1.363       .  D
C143        C144   1.540       .  S
C143        C203   1.442       .  S
C144        C148   1.540       .  S
C144        C146   1.541       .  S
C144        H150   1.111       .  S
C145        H151   1.087       .  S
C145        C146   1.364       .  D
C146        C201   1.443       .  S
C147        H152   1.087       .  S
C147        C148   1.364       .  D
C148        C208   1.441       .  S
C153        C386   1.531       .  S
C153        C159   1.530       .  S
C153        C157   1.531       .  S
C153        C197   1.467       .  S
C154        C385   1.531   1_545  S
C154        H161   1.087       .  S
C154        C155   1.363       .  D
C155        C388   1.540   1_545  S
C155        C204   1.442       .  S
C156        C387   1.540       .  S
C156        C160   1.541       .  S
C156        C158   1.541       .  S
C156        H162   1.111       .  S
C157        H163   1.087       .  S
C157        C158   1.364       .  D
C158        C202   1.443       .  S
C159        H164   1.087       .  S
C159        C160   1.364       .  D
C160        C193   1.442       .  S
O165       Cu173   2.010   1_455  S
O165        C407   1.276   1_545  A
O166        C408   1.277   1_545  A
O167       Cu173   2.010       .  S
O167        C409   1.277   1_545  A
O168        C410   1.277   1_545  A
O169        C178   1.276       .  A
O170       Cu174   2.009       .  S
O170        C177   1.276       .  A
O171        C176   1.276       .  A
O172       Cu174   2.008   1_455  S
O172        C175   1.276       .  A
Cu173      Cu406   2.380   1_545  S
Cu174      Cu405   2.380       .  S
C175        O397   1.276       .  A
C175        C200   1.434       .  S
C176        O398   1.277       .  A
C176        C216   1.435       .  S
C177        O399   1.277       .  A
C177        C217   1.435       .  S
C178        O400   1.277       .  A
C178        C196   1.436       .  S
O179        C189   1.276       .  A
O180       Cu187   2.009       .  S
O180        C190   1.276       .  A
O181        C191   1.276       .  A
O182       Cu187   2.009       .  S
O182        C192   1.276       .  A
O183       Cu188   2.012       .  S
O183        C192   1.277       .  A
O184        C191   1.277       .  A
O185       Cu188   2.013       .  S
O185        C190   1.277       .  A
O186        C189   1.277       .  A
Cu187      Cu188   2.380       .  S
C189        C232   1.435       .  S
C190        C205   1.436       .  S
C191        C212   1.434       .  S
C192        C228   1.436       .  S
C193        C194   1.206       .  T
C194        C195   1.413       .  S
C195        C196   1.206       .  T
C197        C198   1.205       .  T
C198        C199   1.411       .  S
C199        C200   1.205       .  T
C201        C202   1.207       .  T
C203        C204   1.206       .  T
C205        C206   1.206       .  T
C206        C207   1.412       .  S
C207        C208   1.206       .  T
C209        C210   1.205       .  T
C210        C211   1.411       .  S
C211        C212   1.205       .  T
C213        C214   1.206       .  T
C214        C215   1.412       .  S
C215        C216   1.206       .  T
C217        C218   1.205       .  T
C218        C219   1.412       .  S
C219        C220   1.205       .  T
C221        C222   1.205       .  T
C223        C224   1.206       .  T
C225        C226   1.206       .  T
C226        C227   1.412       .  S
C227        C228   1.206       .  T
C229        C230   1.206       .  T
C230        C231   1.412       .  S
C231        C232   1.206       .  T
C233        C234   1.535       .  S
C233        C239   1.533       .  S
C233        C237   1.534       .  S
C233        C345   1.468       .  S
C234        H241   1.087       .  S
C234        C235   1.365       .  D
C235        C236   1.537       .  S
C235        C339   1.441       .  S
C236        C240   1.536       .  S
C236        C238   1.536       .  S
C236        H242   1.112       .  S
C237        H243   1.087       .  S
C237        C238   1.364       .  D
C238        C337   1.440       .  S
C239        H244   1.087       .  S
C239        C240   1.363       .  D
C240        C341   1.441       .  S
C245        C251   1.533       .  S
C245        C249   1.535       .  S
C245        C329   1.468       .  S
C246        H253   1.087       .  S
C246        C247   1.364       .  D
C247        C338   1.440       .  S
C248        C252   1.535       .  S
C248        C250   1.536       .  S
C248        H254   1.112       .  S
C249        H255   1.086       .  S
C249        C250   1.365       .  D
C250        C340   1.441       .  S
C251        H256   1.087       .  S
C251        C252   1.363       .  D
C252        C336   1.441       .  S
C257        C258   1.531       .  S
C257        C263   1.531       .  S
C257        C261   1.532       .  S
C257        C325   1.467       .  S
C258        H265   1.087       .  S
C258        C259   1.363       .  D
C259        C260   1.540       .  S
C259        C319   1.442       .  S
C260        C264   1.540       .  S
C260        C262   1.541       .  S
C260        H266   1.111       .  S
C261        H267   1.087       .  S
C261        C262   1.364       .  D
C262        C317   1.443       .  S
C263        H268   1.087       .  S
C263        C264   1.364       .  D
C264        C324   1.441       .  S
C269        C275   1.530       .  S
C269        C273   1.531       .  S
C269        C313   1.467       .  S
C270        H277   1.087       .  S
C270        C271   1.363       .  D
C271        C320   1.442       .  S
C272        C276   1.541       .  S
C272        C274   1.541       .  S
C272        H278   1.111       .  S
C273        H279   1.087       .  S
C273        C274   1.364       .  D
C274        C318   1.443       .  S
C275        H280   1.087       .  S
C275        C276   1.364       .  D
C276        C309   1.442       .  S
O281       Cu289   2.010   1_455  S
O282       Cu405   2.011       .  S
O283       Cu289   2.010       .  S
O284       Cu405   2.012   1_455  S
O285       Cu406   2.010   1_455  S
O285        C294   1.276       .  A
O286       Cu290   2.009       .  S
O286        C293   1.276       .  A
O287       Cu406   2.009       .  S
O287        C292   1.276       .  A
O288       Cu290   2.008   1_455  S
O288        C291   1.276       .  A
Cu289       O398   2.011   1_554  S
Cu289       O400   2.012   1_654  S
Cu290       O401   2.010   1_654  S
Cu290       O403   2.009   1_554  S
C291        C316   1.434       .  S
C292        C332   1.435       .  S
C293        C333   1.435       .  S
C294        C312   1.436       .  S
O295       Cu419   2.008   1_554  S
O295        C305   1.276       .  A
O296       Cu303   2.009       .  S
O296        C306   1.276       .  A
O297       Cu419   2.007   1_554  S
O297        C307   1.276       .  A
O298       Cu303   2.009       .  S
O298        C308   1.276       .  A
O299       Cu304   2.012       .  S
O299        C308   1.277       .  A
O300       Cu420   2.010   1_554  S
O300        C307   1.277       .  A
O301       Cu304   2.013       .  S
O301        C306   1.277       .  A
O302       Cu420   2.012   1_554  S
O302        C305   1.277       .  A
Cu303       O411   2.008       .  S
Cu303       O413   2.007       .  S
Cu303      Cu304   2.380       .  S
Cu304       O416   2.010       .  S
Cu304       O418   2.012       .  S
C305        C348   1.435       .  S
C306        C321   1.436       .  S
C307        C328   1.434       .  S
C308        C344   1.436       .  S
C309        C310   1.206       .  T
C310        C311   1.413       .  S
C311        C312   1.206       .  T
C313        C314   1.205       .  T
C314        C315   1.411       .  S
C315        C316   1.205       .  T
C317        C318   1.207       .  T
C319        C320   1.206       .  T
C321        C322   1.206       .  T
C322        C323   1.412       .  S
C323        C324   1.206       .  T
C325        C326   1.205       .  T
C326        C327   1.411       .  S
C327        C328   1.205       .  T
C329        C330   1.206       .  T
C330        C331   1.412       .  S
C331        C332   1.206       .  T
C333        C334   1.205       .  T
C334        C335   1.412       .  S
C335        C336   1.205       .  T
C337        C338   1.205       .  T
C339        C340   1.206       .  T
C341        C342   1.206       .  T
C342        C343   1.412       .  S
C343        C344   1.206       .  T
C345        C346   1.206       .  T
C346        C347   1.412       .  S
C347        C348   1.206       .  T
C349        C350   1.535       .  S
C349        C355   1.533       .  S
C349        C353   1.534       .  S
C349        C461   1.468       .  S
C350        H357   1.087       .  S
C350        C351   1.365       .  D
C351        C352   1.537       .  S
C351        C455   1.441       .  S
C352        C356   1.536       .  S
C352        C354   1.536       .  S
C352        H358   1.112       .  S
C353        H359   1.087       .  S
C353        C354   1.364       .  D
C354        C453   1.440       .  S
C355        H360   1.087       .  S
C355        C356   1.363       .  D
C356        C457   1.441       .  S
C361        C367   1.533       .  S
C361        C365   1.535       .  S
C361        C445   1.468       .  S
C362        H369   1.087       .  S
C362        C363   1.364       .  D
C363        C454   1.440       .  S
C364        C368   1.535       .  S
C364        C366   1.536       .  S
C364        H370   1.112       .  S
C365        H371   1.086       .  S
C365        C366   1.365       .  D
C366        C456   1.441       .  S
C367        H372   1.087       .  S
C367        C368   1.363       .  D
C368        C452   1.441       .  S
C373        C374   1.531       .  S
C373        C379   1.531       .  S
C373        C377   1.532       .  S
C373        C441   1.467       .  S
C374        H381   1.087       .  S
C374        C375   1.363       .  D
C375        C376   1.540       .  S
C375        C435   1.442       .  S
C376        C380   1.540       .  S
C376        C378   1.541       .  S
C376        H382   1.111       .  S
C377        H383   1.087       .  S
C377        C378   1.364       .  D
C378        C433   1.443       .  S
C379        H384   1.087       .  S
C379        C380   1.364       .  D
C380        C440   1.441       .  S
C385        C391   1.530       .  S
C385        C389   1.531       .  S
C385        C429   1.467       .  S
C386        H393   1.087       .  S
C386        C387   1.363       .  D
C387        C436   1.442       .  S
C388        C392   1.541       .  S
C388        C390   1.541       .  S
C388        H394   1.111       .  S
C389        H395   1.087       .  S
C389        C390   1.364       .  D
C390        C434   1.443       .  S
C391        H396   1.087       .  S
C391        C392   1.364       .  D
C392        C425   1.442       .  S
O397       Cu405   2.010   1_455  S
O399       Cu405   2.010       .  S
O401        C410   1.276       .  A
O402       Cu406   2.009       .  S
O402        C409   1.276       .  A
O403        C408   1.276       .  A
O404       Cu406   2.008   1_455  S
O404        C407   1.276       .  A
C407        C432   1.434       .  S
C408        C448   1.435       .  S
C409        C449   1.435       .  S
C410        C428   1.436       .  S
O411        C421   1.276       .  A
O412       Cu419   2.009       .  S
O412        C422   1.276       .  A
O413        C423   1.276       .  A
O414       Cu419   2.009       .  S
O414        C424   1.276       .  A
O415       Cu420   2.012       .  S
O415        C424   1.277       .  A
O416        C423   1.277       .  A
O417       Cu420   2.013       .  S
O417        C422   1.277       .  A
O418        C421   1.277       .  A
Cu419      Cu420   2.380       .  S
C421        C464   1.435       .  S
C422        C437   1.436       .  S
C423        C444   1.434       .  S
C424        C460   1.436       .  S
C425        C426   1.206       .  T
C426        C427   1.413       .  S
C427        C428   1.206       .  T
C429        C430   1.205       .  T
C430        C431   1.411       .  S
C431        C432   1.205       .  T
C433        C434   1.207       .  T
C435        C436   1.206       .  T
C437        C438   1.206       .  T
C438        C439   1.412       .  S
C439        C440   1.206       .  T
C441        C442   1.205       .  T
C442        C443   1.411       .  S
C443        C444   1.205       .  T
C445        C446   1.206       .  T
C446        C447   1.412       .  S
C447        C448   1.206       .  T
C449        C450   1.205       .  T
C450        C451   1.412       .  S
C451        C452   1.205       .  T
C453        C454   1.205       .  T
C455        C456   1.206       .  T
C457        C458   1.206       .  T
C458        C459   1.412       .  S
C459        C460   1.206       .  T
C461        C462   1.206       .  T
C462        C463   1.412       .  S
C463        C464   1.206       .  T
