geometry optimzed in LAMMPS
_audit_creation_date              2020-11-30 
_audit_creation_method            'lammps2cif' 
_symmetry_space_group_name_H-M    'P1' 
_symmetry_Int_Tables_number       1 
_symmetry_cell_setting            triclinic 
loop_ 
_symmetry_equiv_pos_as_xyz 
  x,y,z 
_cell_length_a                    38.19667124 
_cell_length_b                    38.224022153396604 
_cell_length_c                    35.227245849486735 
_cell_angle_alpha                 90.06419929942665 
_cell_angle_beta                  88.14671802024975 
_cell_angle_gamma                 89.54300902478082 
loop_ 
_atom_site_label 
_atom_site_type_symbol 
_atom_site_fract_x 
_atom_site_fract_y 
_atom_site_fract_z 
_atom_site_charge 
C1          C  0.82560294  0.37681988  0.00240458     0.03100
C2          C  0.85207503  0.40153777  0.00720900    -0.13100
C3          C  0.88744556  0.39120441  0.00563209     0.00600
C4          C  0.89599089  0.35566394  0.00100999    -0.11600
C5          C  0.86981476  0.33055719  0.99634103     0.03000
C6          C  0.83460939  0.34149718  0.99672453    -0.11000
H7          H  0.84517442  0.42897281  0.01028313     0.08600
H8          H  0.92324644  0.34763017  0.00118189     0.06200
H9          H  0.81409723  0.32264809  0.99230826     0.06000
C10         C  0.87319649  0.32312055  0.46520518     0.03100
C11         C  0.83746924  0.33184298  0.46542281    -0.13100
C12         C  0.82660239  0.36676579  0.46992495     0.00600
C13         C  0.85172265  0.39314998  0.47308464    -0.11600
C14         C  0.88770193  0.38491574  0.47143727     0.03000
C15         C  0.89807369  0.34970784  0.46763461    -0.11000
H16         H  0.81809147  0.31136273  0.46390829     0.08600
H17         H  0.84310615  0.42001139  0.47709311     0.06200
H18         H  0.92563529  0.34276699  0.46612319     0.06000
C19         C  0.58952721  0.82951800  0.97851217     0.03100
C20         C  0.56395516  0.85628127  0.97892625    -0.13100
C21         C  0.57356968  0.89156887  0.97890994     0.00600
C22         C  0.60907026  0.90040693  0.97828878    -0.11600
C23         C  0.63495111  0.87421514  0.97761918     0.03000
C24         C  0.62516548  0.83888869  0.97752908    -0.11000
H25         H  0.53640056  0.84988157  0.97847279     0.08600
H26         H  0.61657369  0.92770459  0.97834527     0.06200
H27         H  0.64540168  0.81890897  0.97798680     0.06000
C28         C  0.59346129  0.81707175  0.49805473     0.03100
C29         C  0.56742750  0.84312298  0.49831909    -0.13100
C30         C  0.57655091  0.87844937  0.49679773     0.00600
C31         C  0.61190917  0.88779513  0.49532798    -0.11600
C32         C  0.63857892  0.86214905  0.49458771     0.03000
C33         C  0.62897043  0.82660006  0.49641513    -0.11000
H34         H  0.54003082  0.83586316  0.49902865     0.08600
H35         H  0.61840305  0.91532057  0.49502928     0.06200
H36         H  0.64884184  0.80623990  0.49499136     0.06000
O37         O  0.90863859  0.94049791  0.94841867    -0.78600
C38         C  0.97872511  0.98415358  0.86063239     0.82500
O39         O  0.02905199  0.91458164  0.98330791    -0.79700
O40         O  0.05051425  0.03286877  0.94121259    -0.81200
O41         O  0.93583001  0.05651322  0.99484835    -0.81000
O42         O  0.89435583  0.98048229  0.99219333    -0.79600
Zn43       Zn  0.96016229  0.94766234  0.93586624     1.55700
O44         O  0.97032096  0.06976028  0.94470633    -0.81000
Cd45       Cd  0.94203973  0.00342924  0.00167066     1.59700
Cd46       Cd  0.01910194  0.96664887  0.99681177     1.59600
O47         O  0.95359910  0.99398523  0.05747809    -0.81000
O48         O  0.97962364  0.98484254  0.96634298    -1.91500
Cd49       Cd  0.99767606  0.02355635  0.93306744     1.59900
O50         O  0.00676328  0.96953365  0.05449137    -0.80900
O51         O  0.99218514  0.01052902  0.87667444    -0.79600
C52         C  0.01213507  0.89279958  0.96361112     0.82900
C53         C  0.88604186  0.95536085  0.97057878     0.82600
O54         O  0.96545152  0.95897803  0.87982655    -0.78500
C55         C  0.94783041  0.07847461  0.97067619     0.83400
O56         O  0.98530196  0.90201312  0.94534616    -0.78600
C57         C  0.98002080  0.98079190  0.07353998     0.83500
C58         C  0.07245233  0.02008253  0.96407270     0.83900
O59         O  0.06424767  0.99549382  0.98705027    -0.81100
O60         O  0.99093229  0.89407904  0.49119895    -0.78600
C61         C  0.98208057  0.97859669  0.57363698     0.82500
O62         O  0.89726770  0.96904565  0.44929558    -0.79700
O63         O  0.97807360  0.06184603  0.48673311    -0.81200
O64         O  0.06704327  0.98239577  0.43926710    -0.81000
O65         O  0.02755131  0.90408038  0.44196876    -0.79600
Zn66       Zn  0.96470390  0.93938858  0.50119160     1.55700
O67         O  0.05505786  0.01982735  0.48656635    -0.81000
Cd68       Cd  0.01977932  0.95691900  0.43206936     1.59700
Cd69       Cd  0.94332491  0.99532351  0.43687856     1.59600
O70         O  0.00604657  0.96259115  0.37612746    -0.81000
O71         O  0.98223361  0.97601119  0.46744484    -1.91500
Cd72       Cd  0.00202744  0.01452594  0.49823007     1.59900
O73         O  0.95442436  0.99021700  0.37918292    -0.80900
O74         O  0.99471224  0.00477751  0.55565938    -0.79600
C75         C  0.88992783  0.94462237  0.47278360     0.82900
C76         C  0.01435503  0.88365035  0.46707834     0.82600
O77         O  0.97039558  0.95211610  0.55623595    -0.78500
C78         C  0.07652873  0.00597792  0.46237874     0.83400
O79         O  0.91305143  0.93138379  0.49390862    -0.78600
C80         C  0.97989000  0.97641281  0.36008858     0.83500
C81         C  0.95183486  0.07041555  0.46720697     0.83900
O82         O  0.93532792  0.04800488  0.44796567    -0.81100
C83         C  0.08806230  0.63975673  0.97590215     0.03100
C84         C  0.06327055  0.61284029  0.97961622    -0.13100
C85         C  0.07341306  0.57834955  0.98834198     0.00600
C86         C  0.10926049  0.57097835  0.99231874    -0.11600
C87         C  0.13452034  0.59701725  0.98653920     0.03000
C88         C  0.12382124  0.63133807  0.97853359    -0.11000
H89         H  0.03598818  0.61886810  0.97519333     0.08600
H90         H  0.11786328  0.54489450  0.99973221     0.06200
H91         H  0.14339917  0.65159643  0.97576722     0.06000
C92         C  0.13557920  0.58559794  0.48893155     0.03100
C93         C  0.10953901  0.56018535  0.48612584    -0.13100
C94         C  0.07471117  0.56999323  0.48046175     0.00600
C95         C  0.06598409  0.60550446  0.47702133    -0.11600
C96         C  0.09166202  0.63132691  0.48057701     0.03000
C97         C  0.12644622  0.62117381  0.48697302    -0.11000
H98         H  0.11643653  0.53269248  0.48812194     0.08600
H99         H  0.03897762  0.61305190  0.47278749     0.06200
H100        H  0.14660083  0.64083215  0.48897549     0.06000
C101        C  0.32396598  0.09734185  0.96968624     0.03100
C102        C  0.33392504  0.13244096  0.97324499    -0.13100
C103        C  0.36917557  0.14135536  0.97756259     0.00600
C104        C  0.39442632  0.11451491  0.97893320    -0.11600
C105        C  0.38524691  0.07920691  0.97458878     0.03000
C106        C  0.34980490  0.07092439  0.96971463    -0.11000
H107        H  0.31415224  0.15283645  0.97191316     0.08600
H108        H  0.42129700  0.12119986  0.98431345     0.06200
H109        H  0.34212676  0.04392526  0.96631335     0.06000
C110        C  0.32952374  0.08312584  0.46731669     0.03100
C111        C  0.35544396  0.05740163  0.47268588    -0.13100
C112        C  0.39040626  0.06662309  0.47858594     0.00600
C113        C  0.39910766  0.10222689  0.47992044    -0.11600
C114        C  0.37399379  0.12847056  0.47358921     0.03000
C115        C  0.33933536  0.11856062  0.46692888    -0.11000
H116        H  0.34836866  0.03007664  0.47245383     0.08600
H117        H  0.42548441  0.10953995  0.48672607     0.06200
H118        H  0.32000889  0.13847102  0.46090841     0.06000
O119        O  0.45479202  0.46876467  0.90900679    -0.78600
C120        C  0.44702110  0.39223441  0.99711332     0.82500
O121        O  0.40782151  0.53275804  0.01952711    -0.79700
O122        O  0.48772570  0.45815891  0.08611559    -0.81200
O123        O  0.56409197  0.47593776  0.97291513    -0.81000
O124        O  0.50679802  0.49456563  0.90558452    -0.79600
Zn125      Zn  0.44145311  0.46625208  0.96509298     1.55700
O126        O  0.55044365  0.43965810  0.02051374    -0.81000
Cd127      Cd  0.51764496  0.50174248  0.96208517     1.59700
Cd128      Cd  0.46055635  0.52369344  0.02899257     1.59600
O129        O  0.52547424  0.55456828  0.97005327    -0.81000
O130        O  0.47859899  0.48436628  0.99600311    -1.91500
Cd131      Cd  0.49692778  0.44647475  0.02918934     1.59900
O132        O  0.48781406  0.56933800  0.01715423    -0.80900
O133        O  0.47290737  0.39957321  0.01755552    -0.79600
C134        C  0.38699009  0.51902965  0.99624249     0.82900
C135        C  0.48081044  0.48074734  0.88966855     0.82600
O136        O  0.43193039  0.41542768  0.97727092    -0.78500
C137        C  0.57275375  0.45283910  0.99703847     0.83400
O138        O  0.39682190  0.49420796  0.97403494    -0.78600
C139        C  0.51205628  0.57716228  0.99294178     0.83500
C140        C  0.47635019  0.48533733  0.10372972     0.83900
O141        O  0.46594243  0.51244013  0.08612348    -0.81100
O142        O  0.39624170  0.47926219  0.47963870    -0.78600
C143        C  0.47720844  0.47887759  0.38997960     0.82500
O144        O  0.47419371  0.38767338  0.51555011    -0.79700
O145        O  0.56365597  0.46555824  0.46821257    -0.81200
O146        O  0.48710413  0.55800760  0.52106736    -0.81000
O147        O  0.40835898  0.51971992  0.52268389    -0.79600
Zn148      Zn  0.44210267  0.45559897  0.46509220     1.55700
O149        O  0.52564827  0.54546908  0.47410451    -0.81000
Cd150      Cd  0.46117438  0.51127522  0.53044573     1.59700
Cd151      Cd  0.49900620  0.43442346  0.52744261     1.59600
O152        O  0.46755190  0.49802565  0.58652661    -0.81000
O153        O  0.47945999  0.47325557  0.49600115    -1.91500
Cd154      Cd  0.51731620  0.49316699  0.46227037     1.59900
O155        O  0.49266031  0.44518625  0.58532565    -0.80900
O156        O  0.50393644  0.49095663  0.40608373    -0.79600
C157        C  0.44999647  0.38023302  0.49280436     0.82900
C158        C  0.38668114  0.50415973  0.50184418     0.82600
O159        O  0.45219778  0.46465998  0.40905916    -0.78500
C160        C  0.51160721  0.56703440  0.49777890     0.83400
O161        O  0.43595564  0.40362170  0.47235004    -0.78600
C162        C  0.48010077  0.47157623  0.60356464     0.83500
C163        C  0.57316232  0.44092167  0.49011472     0.83900
O164        O  0.55202328  0.42719796  0.51452605    -0.81100
C165        C  0.46123582  0.45141720  0.78976234    -0.10900
C166        C  0.48107780  0.47508373  0.76773436     0.06200
C167        C  0.50089060  0.50049808  0.78594356    -0.09700
C168        C  0.50111855  0.50204781  0.82557652    -0.11300
C169        C  0.48089109  0.47870186  0.84773204    -0.01100
C170        C  0.46082025  0.45346005  0.82943744    -0.10200
C171        C  0.48063423  0.47379730  0.72580821     0.06200
H172        H  0.51642701  0.51895781  0.76943356     0.08200
H173        H  0.51672875  0.52184839  0.83889758     0.11600
H174        H  0.44509596  0.43506937  0.84581452     0.11900
H175        H  0.44561014  0.43176004  0.77622100     0.08200
C176        C  0.48903179  0.44275270  0.70608653    -0.10900
C177        C  0.48909840  0.44191658  0.66633186    -0.10200
C178        C  0.48017736  0.47199758  0.64567580    -0.01100
C179        C  0.47141082  0.50290917  0.66568125    -0.11300
C180        C  0.47189812  0.50384707  0.70528409    -0.09700
H181        H  0.49602082  0.41932308  0.72146089     0.08200
H182        H  0.49598452  0.41772359  0.65180990     0.11900
H183        H  0.46442254  0.52656602  0.65072754     0.11600
H184        H  0.46511350  0.52799257  0.71998389     0.08200
C185        C  0.47429262  0.45354545  0.20559391    -0.10900
C186        C  0.47385919  0.48513088  0.22600683     0.06200
C187        C  0.47417568  0.51688433  0.20595274    -0.09700
C188        C  0.47456389  0.51700975  0.16621021    -0.11300
C189        C  0.47529785  0.48537003  0.14578029    -0.01100
C190        C  0.47529222  0.45365371  0.16590926    -0.10200
C191        C  0.47359970  0.48474267  0.26809383     0.06200
H192        H  0.47374281  0.54158916  0.22105618     0.08200
H193        H  0.47473830  0.54185486  0.15146020     0.11600
H194        H  0.47579269  0.42886912  0.15096509     0.11900
H195        H  0.47443604  0.42872159  0.22038229     0.08200
C196        C  0.45071161  0.46266684  0.28867194    -0.10900
C197        C  0.45140606  0.46120262  0.32830428    -0.10200
C198        C  0.47537683  0.48142161  0.34812744    -0.01100
C199        C  0.49799680  0.50381851  0.32750776    -0.11300
C200        C  0.49694201  0.50563723  0.28792049    -0.09700
H201        H  0.43223998  0.44654470  0.27403827     0.08200
H202        H  0.43360435  0.44376666  0.34336237     0.11900
H203        H  0.51661779  0.51990312  0.34196647     0.11600
H204        H  0.51498725  0.52272509  0.27270571     0.08200
C205        C  0.37068409  0.22685282  0.49101554    -0.10900
C206        C  0.40456704  0.23685211  0.47919825     0.06200
C207        C  0.42792128  0.21147200  0.46435733    -0.09700
C208        C  0.41768372  0.17658011  0.46161430    -0.11300
C209        C  0.38407917  0.16610098  0.47448582    -0.01100
C210        C  0.36062846  0.19179162  0.48904007    -0.10200
C211        C  0.41586789  0.27356749  0.48296821     0.06200
H212        H  0.45404388  0.21874584  0.45462319     0.08200
H213        H  0.43617855  0.15783528  0.44930368     0.11600
H214        H  0.33478106  0.18476100  0.49979634     0.11900
H215        H  0.35233383  0.24605310  0.50277322     0.08200
C216        C  0.39642928  0.30086767  0.46712058    -0.10900
C217        C  0.40756150  0.33550560  0.47020982    -0.10200
C218        C  0.43802598  0.34354319  0.48979801    -0.01100
C219        C  0.45716371  0.31611429  0.50605431    -0.11300
C220        C  0.44633196  0.28145308  0.50238707    -0.09700
H221        H  0.37294174  0.29529816  0.45186918     0.08200
H222        H  0.39221772  0.35600915  0.45735996     0.11900
H223        H  0.48073751  0.32137860  0.52125896     0.11600
H224        H  0.46157490  0.26074620  0.51502929     0.08200
C225        C  0.44663951  0.29333044  0.00071074    -0.10900
C226        C  0.41221381  0.28577581  0.99073093     0.06200
C227        C  0.38896294  0.31351576  0.98374547    -0.09700
C228        C  0.40019819  0.34818557  0.98589097    -0.11300
C229        C  0.43467436  0.35572230  0.99580930    -0.01100
C230        C  0.45767221  0.32796022  0.00356534    -0.10200
C231        C  0.40085042  0.24900729  0.98707474     0.06200
H232        H  0.36234217  0.30833053  0.97582182     0.08200
H233        H  0.38190712  0.36910730  0.97988514     0.11600
H234        H  0.48443264  0.33300283  0.01108623     0.11900
H235        H  0.46497304  0.27238722  0.00650772     0.08200
C236        C  0.42191372  0.22475462  0.96672684    -0.10900
C237        C  0.41143675  0.19000341  0.96334760    -0.10200
C238        C  0.37983218  0.17859161  0.98063903    -0.01100
C239        C  0.35872510  0.20298310  0.00093457    -0.11300
C240        C  0.36905217  0.23787719  0.00393559    -0.09700
H241        H  0.44630488  0.23282771  0.95299481     0.08200
H242        H  0.42796938  0.17212883  0.94682919     0.11900
H243        H  0.33451301  0.19499441  0.01507103     0.11600
H244        H  0.35252233  0.25605130  0.02007208     0.08200
C245        C  0.22238031  0.54108508  0.46730990    -0.10900
C246        C  0.24231278  0.55118963  0.49833636     0.06200
C247        C  0.22683717  0.57362092  0.52598362    -0.09700
C248        C  0.19229322  0.58546757  0.52267792    -0.11300
C249        C  0.17246195  0.57457690  0.49208156    -0.01100
C250        C  0.18776382  0.55236893  0.46445860    -0.10200
C251        C  0.27907853  0.53847980  0.50137928     0.06200
H252        H  0.24117142  0.58159257  0.55051189     0.08200
H253        H  0.18077956  0.60246297  0.54438411     0.11600
H254        H  0.17293531  0.54402882  0.44039382     0.11900
H255        H  0.23358354  0.52470556  0.44490940     0.08200
C256        C  0.28884915  0.50490687  0.48821098    -0.10900
C257        C  0.32369702  0.49369263  0.48868262    -0.10200
C258        C  0.34956845  0.51550577  0.50299309    -0.01100
C259        C  0.33975509  0.54854704  0.51744407    -0.11300
C260        C  0.30494474  0.56002288  0.51640579    -0.09700
H261        H  0.26955953  0.48717079  0.47742937     0.08200
H262        H  0.33037949  0.46789410  0.47783383     0.11900
H263        H  0.35917355  0.56597580  0.52856900     0.11600
H264        H  0.29856681  0.58615569  0.52638124     0.08200
C265        C  0.21999715  0.56103882  0.02235483    -0.10900
C266        C  0.24322014  0.56771488  0.99150167     0.06200
C267        C  0.23060535  0.58505116  0.95946501    -0.09700
C268        C  0.19544533  0.59542614  0.95829252    -0.11300
C269        C  0.17215855  0.58808093  0.98883399    -0.01100
C270        C  0.18472408  0.57085760  0.02088753    -0.10200
C271        C  0.28030271  0.55596920  0.99248112     0.06200
H272        H  0.24800550  0.59068176  0.93539938     0.08200
H273        H  0.18620663  0.60846422  0.93318849     0.11600
H274        H  0.16717957  0.56497440  0.04476166     0.11900
H275        H  0.22897245  0.54747846  0.04724659     0.08200
C276        C  0.30005754  0.56173568  0.02483606    -0.10900
C277        C  0.33487794  0.55020150  0.02590111    -0.10200
C278        C  0.35043748  0.53210640  0.99487772    -0.01100
C279        C  0.33062153  0.52630349  0.96255215    -0.11300
C280        C  0.29601942  0.53835518  0.96125201    -0.09700
H281        H  0.28861547  0.57543590  0.04920321     0.08200
H282        H  0.34945727  0.55497938  0.05122362     0.11900
H283        H  0.34193727  0.51256952  0.93814048     0.11600
H284        H  0.28129420  0.53331511  0.93608895     0.08200
C285        C  0.17119319  0.02037034  0.43009843    -0.10900
C286        C  0.18395005  0.04036736  0.46021026     0.06200
C287        C  0.16087645  0.04876815  0.49088382    -0.09700
C288        C  0.12607826  0.03783607  0.49131583    -0.11300
C289        C  0.11345710  0.01768624  0.46139846    -0.01100
C290        C  0.13642794  0.00897110  0.43081671    -0.10200
C291        C  0.22114691  0.05209395  0.46008660     0.06200
H292        H  0.16977085  0.06333490  0.51505659     0.08200
H293        H  0.10916822  0.04478767  0.51546328     0.11600
H294        H  0.12744026  0.99365841  0.40720119     0.11900
H295        H  0.18789782  0.01382809  0.40568656     0.08200
C296        C  0.24821193  0.03115502  0.44396439    -0.10900
C297        C  0.28316806  0.04162073  0.44525484    -0.10200
C298        C  0.29213307  0.07302429  0.46332344    -0.01100
C299        C  0.26500971  0.09416443  0.47895105    -0.11300
C300        C  0.23005249  0.08404102  0.47700697    -0.09700
H301        H  0.24257323  0.00622220  0.43101901     0.08200
H302        H  0.30314335  0.02491663  0.43218439     0.11900
H303        H  0.27073465  0.11828001  0.49355581     0.11600
H304        H  0.21001831  0.10132086  0.48899879     0.08200
C305        C  0.08269223  0.72808637  0.50260777    -0.10900
C306        C  0.06157186  0.73974202  0.47315300     0.06200
C307        C  0.05109368  0.71564915  0.44569203    -0.09700
C308        C  0.06101533  0.68046746  0.44803376    -0.11300
C309        C  0.08198381  0.66879315  0.47758462    -0.01100
C310        C  0.09300786  0.69297939  0.50465587    -0.10200
C311        C  0.04988257  0.77676331  0.47151504     0.06200
H312        H  0.03461275  0.72390326  0.42286588     0.08200
H313        H  0.05238548  0.66233882  0.42667405     0.11600
H314        H  0.10900841  0.68455930  0.52782135     0.11900
H315        H  0.09132801  0.74619975  0.52397460     0.08200
C316        C  0.03662560  0.79369128  0.50440793    -0.10900
C317        C  0.02482092  0.82833093  0.50283364    -0.10200
C318        C  0.02661489  0.84693816  0.46848029    -0.01100
C319        C  0.04024167  0.83017539  0.43563888    -0.11300
C320        C  0.05145420  0.79528729  0.43707245    -0.09700
H321        H  0.03485184  0.77991483  0.53123538     0.08200
H322        H  0.01459989  0.84069886  0.52860917     0.11900
H323        H  0.04179387  0.84390300  0.40876879     0.11600
H324        H  0.06173269  0.78287425  0.41135094     0.08200
C325        C  0.16185508  0.04585597  0.99764650    -0.10900
C326        C  0.17809296  0.05846531  0.96411294     0.06200
C327        C  0.15906178  0.05927801  0.93065358    -0.09700
C328        C  0.12437513  0.04760907  0.93076693    -0.11300
C329        C  0.10848010  0.03406111  0.96410644    -0.01100
C330        C  0.12754539  0.03339822  0.99754969    -0.10200
C331        C  0.21510229  0.06981861  0.96409281     0.06200
H332        H  0.17102415  0.06905099  0.90450874     0.08200
H333        H  0.11026524  0.04837691  0.90459551     0.11600
H334        H  0.11584519  0.02334201  0.02369918     0.11900
H335        H  0.17606116  0.04485634  0.02375120     0.08200
C336        C  0.22623679  0.09362993  0.99148331    -0.10900
C337        C  0.26147783  0.10303900  0.99271817    -0.10200
C338        C  0.28639666  0.08834751  0.96702077    -0.01100
C339        C  0.27522499  0.06468306  0.93944694    -0.11300
C340        C  0.23981826  0.05576381  0.93776890    -0.09700
H341        H  0.20762795  0.10487171  0.01199144     0.08200
H342        H  0.26944232  0.12119031  0.01438031     0.11900
H343        H  0.29388368  0.05317806  0.91917483     0.11600
H344        H  0.23184563  0.03717474  0.91655127     0.08200
C345        C  0.06885499  0.81127503  0.96921713    -0.10900
C346        C  0.04453907  0.78477244  0.96255302     0.06200
C347        C  0.00975888  0.79408021  0.95526171    -0.09700
C348        C  0.99945232  0.82924630  0.95476394    -0.11300
C349        C  0.02356513  0.85575042  0.96232256    -0.01100
C350        C  0.05838881  0.84642974  0.96948500    -0.10200
C351        C  0.05513354  0.74747396  0.96457797     0.06200
H352        H  0.99057739  0.77410449  0.94990248     0.08200
H353        H  0.97240222  0.83566302  0.94931362     0.11600
H354        H  0.07753091  0.86632846  0.97526043     0.11900
H355        H  0.09575956  0.80470945  0.97518581     0.08200
C356        C  0.08564371  0.73529319  0.94537943    -0.10900
C357        C  0.09603419  0.70022354  0.94831260    -0.10200
C358        C  0.07634988  0.67671870  0.97093321    -0.01100
C359        C  0.04572531  0.68909768  0.98999282    -0.11300
C360        C  0.03513129  0.72397938  0.98662749    -0.09700
H361        H  0.10131252  0.75289609  0.92791647     0.08200
H362        H  0.11942381  0.69152326  0.93277081     0.11900
H363        H  0.03031864  0.67203641  0.00834283     0.11600
H364        H  0.01176003  0.73286429  0.00212496     0.08200
C365        C  0.97323355  0.94883945  0.67620528    -0.10900
C366        C  0.97918177  0.98008107  0.69606956     0.06200
C367        C  0.98560050  0.01082931  0.67514134    -0.09700
C368        C  0.98667028  0.01026277  0.63548814    -0.11300
C369        C  0.98087151  0.97904238  0.61569507    -0.01100
C370        C  0.97388482  0.94836909  0.63648002    -0.10200
C371        C  0.97910253  0.98068968  0.73835752     0.06200
H372        H  0.98949238  0.03553431  0.68937703     0.08200
H373        H  0.99174334  0.03442417  0.62032649     0.11600
H374        H  0.96941679  0.92385434  0.62204860     0.11900
H375        H  0.96870437  0.92455712  0.69129647     0.08200
C376        C  0.95600918  0.95959019  0.76005427    -0.10900
C377        C  0.95602886  0.96044392  0.79976900    -0.10200
C378        C  0.97879318  0.98275509  0.81865555    -0.01100
C379        C  0.00183953  0.00381164  0.79705159    -0.11300
C380        C  0.00219390  0.00258591  0.75743708    -0.09700
H381        H  0.93750238  0.94279954  0.74640290     0.08200
H382        H  0.93783757  0.94404099  0.81569311     0.11900
H383        H  0.01999340  0.02096278  0.81078555     0.11600
H384        H  0.02092518  0.01857265  0.74178194     0.08200
C385        C  0.01041922  0.97241481  0.17442938    -0.10900
C386        C  0.97889181  0.97694819  0.19570105     0.06200
C387        C  0.94768235  0.98211819  0.17630606    -0.09700
C388        C  0.94805829  0.98320164  0.13666350    -0.11300
C389        C  0.97960137  0.97880249  0.11547562    -0.01100
C390        C  0.01073627  0.97313192  0.13476740    -0.10200
C391        C  0.97865111  0.97650700  0.23791219     0.06200
H392        H  0.92285892  0.98504284  0.19174844     0.08200
H393        H  0.92357293  0.98730938  0.12259549     0.11600
H394        H  0.03548842  0.96990335  0.11923172     0.11900
H395        H  0.03501865  0.96895527  0.18842641     0.08200
C396        C  0.00082513  0.95355965  0.25721778    -0.10900
C397        C  0.00122818  0.95362512  0.29683386    -0.10200
C398        C  0.97916590  0.97634163  0.31813190    -0.01100
C399        C  0.95663198  0.99899225  0.29895531    -0.11300
C400        C  0.95651615  0.99921564  0.25927187    -0.09700
H401        H  0.01769525  0.93525254  0.24172124     0.08200
H402        H  0.01862207  0.93560891  0.31081067     0.11900
H403        H  0.93948641  0.01696246  0.31460331     0.11600
H404        H  0.93951411  0.01761916  0.24533243     0.08200
C405        C  0.52295125  0.95438392  0.46168727    -0.10900
C406        C  0.49746100  0.95862023  0.49114969     0.06200
C407        C  0.49824080  0.93580778  0.52251171    -0.09700
C408        C  0.52367867  0.90938784  0.52418654    -0.11300
C409        C  0.54922025  0.90576646  0.49497322    -0.01100
C410        C  0.54875895  0.92847554  0.46380390    -0.10200
C411        C  0.47019735  0.98658242  0.48895898     0.06200
H412        H  0.47951876  0.93860594  0.54605513     0.08200
H413        H  0.52384657  0.89216742  0.54858189     0.11600
H414        H  0.56812474  0.92577480  0.44080762     0.11900
H415        H  0.52277367  0.97076879  0.43666196     0.08200
C416        C  0.47795406  0.01873951  0.47137290    -0.10900
C417        C  0.45214290  0.04451451  0.46805324    -0.10200
C418        C  0.41797672  0.03921149  0.48292416    -0.01100
C419        C  0.41039180  0.00735155  0.50124841    -0.11300
C420        C  0.43606445  0.98127956  0.50393275    -0.09700
H421        H  0.50405683  0.02415511  0.46014725     0.08200
H422        H  0.45893781  0.06843810  0.45324799     0.11900
H423        H  0.38461450  0.00247513  0.51367208     0.11600
H424        H  0.42890288  0.95674810  0.51725229     0.08200
C425        C  0.55159752  0.73264253  0.46817540    -0.10900
C426        C  0.56011466  0.71003774  0.49797076     0.06200
C427        C  0.58048556  0.72272061  0.52748593    -0.09700
C428        C  0.59219824  0.75734391  0.52709606    -0.11300
C429        C  0.58312534  0.77994227  0.49759088    -0.01100
C430        C  0.56275045  0.76735308  0.46817125    -0.10200
C431        C  0.54774211  0.67335947  0.49811288     0.06200
H432        H  0.58759306  0.70574192  0.55063759     0.08200
H433        H  0.60772387  0.76671319  0.55014742     0.11600
H434        H  0.55547228  0.78447382  0.44519340     0.11900
H435        H  0.53573319  0.72361846  0.44524524     0.08200
C436        C  0.53252424  0.65861718  0.53117212    -0.10900
C437        C  0.52043500  0.62415517  0.53101836    -0.10200
C438        C  0.52397777  0.60358824  0.49800202    -0.01100
C439        C  0.53936083  0.61829476  0.46502694    -0.11300
C440        C  0.55083485  0.65291989  0.46498934    -0.09700
H441        H  0.52953755  0.67393758  0.55697387     0.08200
H442        H  0.50869837  0.61345296  0.55683680     0.11900
H443        H  0.54217334  0.60312202  0.43910306     0.11600
H444        H  0.56258497  0.66361107  0.43917438     0.08200
C445        C  0.72004174  0.91408676  0.46726416    -0.10900
C446        C  0.74680290  0.89489413  0.48437778     0.06200
C447        C  0.73770423  0.86430945  0.50453862    -0.09700
C448        C  0.70275863  0.85357829  0.50790511    -0.11300
C449        C  0.67604593  0.87285231  0.49072243    -0.01100
C450        C  0.68535875  0.90298386  0.46991447    -0.10200
C451        C  0.78386166  0.90695173  0.48119831     0.06200
H452        H  0.75756890  0.84845444  0.51759682     0.08200
H453        H  0.69670308  0.83042102  0.52442742     0.11600
H454        H  0.66587755  0.91813480  0.45536304     0.11900
H455        H  0.72569297  0.93807242  0.45204718     0.08200
C456        C  0.79635531  0.92457257  0.44843894    -0.10900
C457        C  0.83065609  0.93695574  0.44586912    -0.10200
C458        C  0.85363012  0.93140710  0.47560938    -0.01100
C459        C  0.84152243  0.91333774  0.50809767    -0.11300
C460        C  0.80696822  0.90152105  0.51100702    -0.09700
H461        H  0.77978563  0.92857359  0.42446808     0.08200
H462        H  0.83933857  0.95050955  0.42030881     0.11900
H463        H  0.85857350  0.90892136  0.53161697     0.11600
H464        H  0.79825464  0.88871021  0.53697568     0.08200
C465        C  0.51929280  0.96912307  0.94888868    -0.10900
C466        C  0.49374092  0.97151027  0.97855902     0.06200
C467        C  0.49508243  0.94727789  0.00859349    -0.09700
C468        C  0.52095697  0.92117310  0.00863069    -0.11300
C469        C  0.54640027  0.91921880  0.97909591    -0.01100
C470        C  0.54554410  0.94349614  0.94939427    -0.10200
C471        C  0.46586603  0.99905589  0.97795234     0.06200
H472        H  0.47638413  0.94863461  0.03229999     0.08200
H473        H  0.52141409  0.90273005  0.03194362     0.11600
H474        H  0.56480011  0.94212637  0.92616873     0.11900
H475        H  0.51875507  0.98667941  0.92483606     0.08200
C476        C  0.47296041  0.03209942  0.96211716    -0.10900
C477        C  0.44675232  0.05766811  0.96050874    -0.10200
C478        C  0.41279750  0.05132127  0.97547564    -0.01100
C479        C  0.40573284  0.01840382  0.99169905    -0.11300
C480        C  0.43184619  0.99254599  0.99269427    -0.09700
H481        H  0.49890736  0.03844614  0.95109735     0.08200
H482        H  0.45317303  0.08240753  0.94719715     0.11900
H483        H  0.38011631  0.01264537  0.00404183     0.11600
H484        H  0.42516382  0.96730603  0.00465341     0.08200
C485        C  0.53812380  0.74725768  0.00228658    -0.10900
C486        C  0.55844831  0.72099307  0.98410870     0.06200
C487        C  0.58901737  0.73076415  0.96353877    -0.09700
C488        C  0.59896293  0.76588498  0.96133083    -0.11300
C489        C  0.57885212  0.79208081  0.98004031    -0.01100
C490        C  0.54834757  0.78218909  0.00062515    -0.10200
C491        C  0.54762984  0.68369023  0.98671944     0.06200
H492        H  0.60554258  0.71126627  0.94948093     0.08200
H493        H  0.62232843  0.77246377  0.94472356     0.11600
H494        H  0.53244326  0.80135484  0.01600630     0.11900
H495        H  0.51405589  0.74092267  0.01776122     0.08200
C496        C  0.53102157  0.67081233  0.02006793    -0.10900
C497        C  0.51948617  0.63625973  0.02208610    -0.10200
C498        C  0.52483476  0.61354804  0.99108573    -0.01100
C499        C  0.54217279  0.62602512  0.95807406    -0.11300
C500        C  0.55320444  0.66076663  0.95580761    -0.09700
H501        H  0.52705105  0.68736537  0.04478916     0.08200
H502        H  0.50659788  0.62723471  0.04807881     0.11900
H503        H  0.54650125  0.60914524  0.93364293     0.11600
H504        H  0.56540542  0.66981625  0.92947906     0.08200
C505        C  0.72954643  0.88618973  0.94580228    -0.10900
C506        C  0.74258145  0.90628767  0.97570424     0.06200
C507        C  0.71993211  0.91455499  0.00681407    -0.09700
C508        C  0.68503018  0.90384042  0.00751633    -0.11300
C509        C  0.67221802  0.88405307  0.97753944    -0.01100
C510        C  0.69477758  0.87492061  0.94690870    -0.10200
C511        C  0.77942662  0.91892823  0.97426412     0.06200
H512        H  0.72915422  0.92923930  0.03075723     0.08200
H513        H  0.66797984  0.91089763  0.03152322     0.11600
H514        H  0.68518146  0.85990398  0.92336054     0.11900
H515        H  0.74593277  0.87980495  0.92109572     0.08200
C516        C  0.80650830  0.89840732  0.95751483    -0.10900
C517        C  0.84100175  0.91041369  0.95591253    -0.10200
C518        C  0.84936603  0.94302812  0.97148140    -0.01100
C519        C  0.82242046  0.96353597  0.98835811    -0.11300
C520        C  0.78785081  0.95175573  0.98949729    -0.09700
H521        H  0.80120868  0.87275387  0.94609878     0.08200
H522        H  0.86122899  0.89387266  0.94300474     0.11900
H523        H  0.82798298  0.98891581  0.00037296     0.11600
H524        H  0.76767982  0.96864458  0.00190154     0.08200
C525        C  0.93555466  0.47093911  0.45726565    -0.10900
C526        C  0.96698208  0.46462066  0.47598526     0.06200
C527        C  0.97164040  0.43211001  0.49386769    -0.09700
C528        C  0.94565875  0.40667863  0.49308195    -0.11300
C529        C  0.91453628  0.41275852  0.47379997    -0.01100
C530        C  0.90975013  0.44526166  0.45601004    -0.10200
C531        C  0.99475420  0.49173588  0.47695003     0.06200
H532        H  0.99561282  0.42598023  0.50809882     0.08200
H533        H  0.95001722  0.38219438  0.50767139     0.11600
H534        H  0.88627496  0.45070835  0.44056865     0.11900
H535        H  0.93069798  0.49583212  0.44373184     0.08200
C536        C  0.00065602  0.51447717  0.44599164    -0.10900
C537        C  0.02646881  0.54014694  0.44720950    -0.10200
C538        C  0.04735711  0.54308077  0.47901433    -0.01100
C539        C  0.04196777  0.52026633  0.50971331    -0.11300
C540        C  0.01570943  0.49510695  0.50889599    -0.09700
H541        H  0.98563995  0.51223547  0.42058512     0.08200
H542        H  0.03052341  0.55739255  0.42311443     0.11900
H543        H  0.05769708  0.52239514  0.53464710     0.11600
H544        H  0.01154716  0.47867842  0.53360021     0.08200
C545        C  0.88476992  0.22813791  0.43658795    -0.10900
C546        C  0.90705281  0.21558976  0.46471795     0.06200
C547        C  0.91799064  0.23895553  0.49277178    -0.09700
C548        C  0.90719139  0.27389757  0.49252956    -0.11300
C549        C  0.88474776  0.28617036  0.46467588    -0.01100
C550        C  0.87345369  0.26302746  0.43679812    -0.10200
C551        C  0.91863508  0.17831058  0.46510302     0.06200
H552        H  0.93444514  0.23018463  0.51536756     0.08200
H553        H  0.91586007  0.29128929  0.51458790     0.11600
H554        H  0.85634202  0.27210587  0.41489257     0.11900
H555        H  0.87633943  0.21113068  0.41411306     0.08200
C556        C  0.89615465  0.15159942  0.45360299    -0.10900
C557        C  0.90699283  0.11661399  0.45412375    -0.10200
C558        C  0.94035092  0.10744186  0.46668697    -0.01100
C559        C  0.96277385  0.13400884  0.47845204    -0.11300
C560        C  0.95215980  0.16903492  0.47737031    -0.09700
H561        H  0.86993091  0.15759955  0.44472555     0.08200
H562        H  0.88902972  0.09667675  0.44513759     0.11900
H563        H  0.98876566  0.12778418  0.48796023     0.11600
H564        H  0.97048576  0.18886162  0.48572249     0.08200
C565        C  0.65876125  0.39570448  0.51298110    -0.10900
C566        C  0.68000608  0.40429228  0.48111678     0.06200
C567        C  0.66577950  0.42441419  0.45201894    -0.09700
C568        C  0.63112294  0.43632870  0.45501690    -0.11300
C569        C  0.60979024  0.42791156  0.48694044    -0.01100
C570        C  0.62387942  0.40714341  0.51572525    -0.10200
C571        C  0.71727148  0.39334692  0.47867341     0.06200
H572        H  0.68175720  0.43158494  0.42732213     0.08200
H573        H  0.62102440  0.45212207  0.43227052     0.11600
H574        H  0.60811585  0.40017665  0.54064263     0.11900
H575        H  0.66915968  0.38004829  0.53568096     0.08200
C576        C  0.73921419  0.39980222  0.50909226    -0.10900
C577        C  0.77484985  0.39130950  0.50608908    -0.10200
C578        C  0.78894192  0.37556063  0.47294941    -0.01100
C579        C  0.76694772  0.36831552  0.44284763    -0.11300
C580        C  0.73142922  0.37751292  0.44551250    -0.09700
H581        H  0.72892639  0.41219111  0.53482101     0.08200
H582        H  0.79145110  0.39687983  0.52967102     0.11900
H583        H  0.77742957  0.35612673  0.41708691     0.11600
H584        H  0.71495100  0.37216722  0.42177257     0.08200
C585        C  0.94101255  0.47050500  0.03135322    -0.10900
C586        C  0.96851574  0.46901628  0.00371814     0.06200
C587        C  0.96931741  0.44110745  0.97761171    -0.09700
C588        C  0.94339466  0.41561283  0.97892835    -0.11300
C589        C  0.91565448  0.41756733  0.00598272    -0.01100
C590        C  0.91469555  0.44521614  0.03223832    -0.10200
C591        C  0.99570768  0.49680648  0.00125865     0.06200
H592        H  0.98942791  0.43934957  0.95532774     0.08200
H593        H  0.94446294  0.39485724  0.95795583     0.11600
H594        H  0.89372546  0.44709746  0.05360680     0.11900
H595        H  0.93980885  0.49110836  0.05244689     0.08200
C596        C  0.98730317  0.53172284  0.01058753    -0.10900
C597        C  0.01252160  0.55792210  0.00708327    -0.10200
C598        C  0.04670565  0.55017572  0.99320766    -0.01100
C599        C  0.05505057  0.51520776  0.98388310    -0.11300
C600        C  0.03011380  0.48888501  0.98838064    -0.09700
H601        H  0.96103162  0.53908878  0.02005314     0.08200
H602        H  0.00506191  0.58424727  0.01544933     0.11900
H603        H  0.08073966  0.50799811  0.97247667     0.11600
H604        H  0.03793437  0.46227740  0.98160505     0.08200
C605        C  0.90650577  0.16206308  0.00922502    -0.10900
C606        C  0.91114074  0.18505317  0.97839032     0.06200
C607        C  0.92773459  0.17249666  0.94476377    -0.09700
C608        C  0.93984754  0.13795244  0.94225231    -0.11300
C609        C  0.93519619  0.11507881  0.97311887    -0.01100
C610        C  0.91820379  0.12743892  0.00653802    -0.10200
C611        C  0.89958979  0.22218395  0.98171742     0.06200
H612        H  0.93118015  0.18929617  0.92023464     0.08200
H613        H  0.95254426  0.12906019  0.91600995     0.11600
H614        H  0.91444165  0.11048932  0.03092121     0.11900
H615        H  0.89446819  0.17097793  0.03578780     0.08200
C616        C  0.86883188  0.23137907  0.00254943    -0.10900
C617        C  0.85896426  0.26646290  0.00705143    -0.10200
C618        C  0.87946128  0.29314877  0.99055388    -0.01100
C619        C  0.90972781  0.28386728  0.96897372    -0.11300
C620        C  0.91978567  0.24887506  0.96482980    -0.09700
H621        H  0.85235823  0.21146497  0.01544663     0.08200
H622        H  0.83564139  0.27268971  0.02409184     0.11900
H623        H  0.92576762  0.30368057  0.95524798     0.11600
H624        H  0.94383772  0.24283721  0.94898845     0.08200
C625        C  0.65729728  0.41194004  0.03002304    -0.10900
C626        C  0.68059353  0.41985377  0.99968046     0.06200
C627        C  0.66825888  0.43838051  0.96839296    -0.08900
C628        C  0.63326641  0.44918669  0.96761624    -0.11300
C629        C  0.60978046  0.44117352  0.99786244    -0.01100
C630        C  0.62212603  0.42223470  0.02899478    -0.10200
C631        C  0.71771824  0.40878561  0.00053628     0.06200
H632        H  0.68586004  0.44490122  0.94478040     0.08200
H633        H  0.62456823  0.46367392  0.94320593     0.11600
H634        H  0.60470780  0.41570318  0.05275016     0.11900
H635        H  0.66626618  0.39744875  0.05431945     0.08200
C636        C  0.73796043  0.41679556  0.03193001    -0.10900
C637        C  0.77325093  0.40682053  0.03234823    -0.10200
C638        C  0.78854461  0.38801135  0.00177474    -0.01100
C639        C  0.76823222  0.37973980  0.97054924    -0.11300
C640        C  0.73318731  0.39035563  0.96976698    -0.09700
H641        H  0.72656198  0.43117899  0.05584126     0.08200
H642        H  0.78852209  0.41335212  0.05671496     0.11900
H643        H  0.77964221  0.36538955  0.94661457     0.11600
H644        H  0.71799241  0.38382008  0.94534302     0.08200
loop_ 
_geom_bond_atom_site_label_1 
_geom_bond_atom_site_label_2 
_geom_bond_distance 
_geom_bond_site_symmetry_2 
_ccdc_geom_bond_type 
C1            C2   1.403       .  A
C1            C6   1.403   1_554  A
C1          C638   1.476       .  S
C2            C3   1.404       .  A
C2            H7   1.084       .  S
C3            C4   1.403       .  A
C3          C589   1.481       .  S
C4            C5   1.405   1_554  A
C4            H8   1.083       .  S
C5            C6   1.405       .  A
C5          C618   1.486       .  S
C6            H9   1.083       .  S
C10          C11   1.402       .  A
C10          C15   1.401       .  A
C10         C549   1.476       .  S
C11          C12   1.402       .  A
C11          H16   1.084       .  S
C12          C13   1.404       .  A
C12         C578   1.475       .  S
C13          C14   1.407       .  A
C13          H17   1.083       .  S
C14          C15   1.405       .  A
C14         C529   1.488       .  S
C15          H18   1.083       .  S
C19          C20   1.409       .  A
C19          C24   1.410       .  A
C19         C489   1.492       .  S
C20          C21   1.401       .  A
C20          H25   1.083       .  S
C21          C22   1.400       .  A
C21         C469   1.475       .  S
C22          C23   1.401       .  A
C22          H26   1.084       .  S
C23          C24   1.404       .  A
C23         C509   1.475       .  S
C24          H27   1.083       .  S
C28          C29   1.401       .  A
C28          C33   1.407       .  A
C28         C429   1.476       .  S
C29          C30   1.398       .  A
C29          H34   1.084       .  S
C30          C31   1.399       .  A
C30         C409   1.474       .  S
C31          C32   1.408       .  A
C31          H35   1.083       .  S
C32          C33   1.411       .  A
C32         C449   1.494       .  S
C33          H36   1.083       .  S
O37          C53   1.275       .  A
O37         Zn43   2.024       .  S
C38         C378   1.480       .  S
C38          O54   1.276       .  A
C38          O51   1.275   1_565  A
O39          C52   1.276       .  A
O39         Cd46   2.075       .  S
O40          C58   1.276       .  A
O40         Cd49   2.081   1_455  S
O41          C55   1.274       .  A
O41         Cd45   2.056   1_556  S
O42          C53   1.273       .  A
O42         Cd45   2.065   1_566  S
Zn43         O54   2.025       .  S
Zn43         O56   2.018       .  S
Zn43         O48   1.947       .  S
O44          C55   1.277       .  A
O44         Cd49   2.079       .  S
Cd45         O47   2.060   1_545  S
Cd45         O48   1.995   1_544  S
Cd46         O50   2.074   1_556  S
Cd46         O59   2.074       .  S
Cd46         O48   2.000   1_455  S
O47          C57   1.274       .  A
O48         Cd49   2.002   1_565  S
Cd49         O51   2.065       .  S
O50          C57   1.275   1_455  A
C52         C349   1.479       .  S
C52          O56   1.275   1_455  A
C53         C518   1.481       .  S
C55         C609   1.478       .  S
C57         C389   1.479       .  S
C58         C329   1.480       .  S
C58          O59   1.275   1_545  A
O60          C76   1.275   1_655  A
O60         Zn66   2.019       .  S
C61         C369   1.481       .  S
C61          O77   1.274       .  A
C61          O74   1.275   1_565  A
O62          C75   1.275       .  A
O62         Cd69   2.067       .  S
O63          C81   1.275       .  A
O63         Cd72   2.067   1_655  S
O64          C78   1.276   1_565  A
O64         Cd68   2.081       .  S
O65          C76   1.275       .  A
O65         Cd68   2.071       .  S
Zn66         O77   2.018       .  S
Zn66         O79   2.023       .  S
Zn66         O71   1.946       .  S
O67          C78   1.275       .  A
O67         Cd72   2.065       .  S
Cd68         O70   2.067       .  S
Cd68         O71   2.002   1_455  S
Cd69         O73   2.071       .  S
Cd69         O82   2.069   1_565  S
Cd69         O71   2.000       .  S
O70          C80   1.275   1_455  A
O71         Cd72   1.996   1_665  S
Cd72         O74   2.068   1_455  S
O73          C80   1.275       .  A
C75         C458   1.480       .  S
C75          O79   1.275       .  A
C76         C318   1.477       .  S
C78         C289   1.483       .  S
C80         C398   1.479       .  S
C81         C558   1.479       .  S
C81          O82   1.275       .  A
C83          C84   1.407       .  A
C83          C88   1.407       .  A
C83         C358   1.491       .  S
C84          C85   1.408       .  A
C84          H89   1.082       .  S
C85          C86   1.407       .  A
C85         C598   1.495       .  S
C86          C87   1.402       .  A
C86          H90   1.082       .  S
C87          C88   1.403       .  A
C87         C269   1.480       .  S
C88          H91   1.083       .  S
C92          C93   1.402       .  A
C92          C97   1.404       .  A
C92         C249   1.475       .  S
C93          C94   1.400       .  A
C93          H98   1.084       .  S
C94          C95   1.401       .  A
C94         C538   1.474       .  S
C95          C96   1.405       .  A
C95          H99   1.084       .  S
C96          C97   1.406       .  A
C96         C309   1.481       .  S
C97         H100   1.084       .  S
C101        C102   1.404       .  A
C101        C106   1.406       .  A
C101        C338   1.484       .  S
C102        C103   1.405       .  A
C102        H107   1.083       .  S
C103        C104   1.404       .  A
C103        C238   1.488       .  S
C104        C105   1.407       .  A
C104        H108   1.082       .  S
C105        C106   1.409       .  A
C105        C478   1.493       .  S
C106        H109   1.083       .  S
C110        C111   1.407       .  A
C110        C115   1.408       .  A
C110        C298   1.493       .  S
C111        C112   1.406       .  A
C111        H116   1.081       .  S
C112        C113   1.405       .  A
C112        C418   1.491       .  S
C113        C114   1.405       .  A
C113        H117   1.082       .  S
C114        C115   1.407       .  A
C114        C209   1.493       .  S
C115        H118   1.082       .  S
O119        C135   1.275       .  A
O119       Zn125   2.027       .  S
C120        C229   1.478       .  S
C120        O136   1.275       .  A
C120        O133   1.275   1_556  A
O121        C134   1.276   1_554  A
O121       Cd128   2.079       .  S
O122        C140   1.276       .  A
O122       Cd131   2.072       .  S
O123        C137   1.275       .  A
O123       Cd127   2.069       .  S
O124        C135   1.274       .  A
O124       Cd127   2.065       .  S
Zn125       O136   2.023       .  S
Zn125       O138   2.021       .  S
Zn125       O130   1.947       .  S
O126        C137   1.275   1_554  A
O126       Cd131   2.071       .  S
Cd127       O129   2.064       .  S
Cd127       O130   1.999       .  S
Cd128       O132   2.075       .  S
Cd128       O141   2.075       .  S
Cd128       O130   2.003   1_554  S
O129        C139   1.274       .  A
O130       Cd131   1.999   1_556  S
Cd131       O133   2.067       .  S
O132        C139   1.276   1_554  A
C134        C278   1.481       .  S
C134        O138   1.275       .  A
C135        C169   1.479       .  S
C137        C629   1.481       .  S
C139        C498   1.478       .  S
C140        C189   1.481       .  S
C140        O141   1.275       .  A
O142        C158   1.275       .  A
O142       Zn148   2.016       .  S
C143        C198   1.482       .  S
C143        O159   1.276       .  A
C143        O156   1.273       .  A
O144        C157   1.276       .  A
O144       Cd151   2.078       .  S
O145        C163   1.276       .  A
O145       Cd154   2.070       .  S
O146        C160   1.274       .  A
O146       Cd150   2.071       .  S
O147        C158   1.275       .  A
O147       Cd150   2.067       .  S
Zn148       O159   2.030       .  S
Zn148       O161   2.018       .  S
Zn148       O153   1.947       .  S
O149        C160   1.275       .  A
O149       Cd154   2.071       .  S
Cd150       O152   2.062       .  S
Cd150       O153   1.999       .  S
Cd151       O155   2.086       .  S
Cd151       O164   2.077       .  S
Cd151       O153   2.007       .  S
O152        C162   1.275       .  A
O153       Cd154   1.998       .  S
Cd154       O156   2.062       .  S
O155        C162   1.277       .  A
C157        C218   1.483       .  S
C157        O161   1.275       .  A
C158        C258   1.478       .  S
C160        C438   1.479       .  S
C162        C178   1.484       .  S
C163        C569   1.482       .  S
C163        O164   1.277       .  A
C165        C166   1.403       .  A
C165        C170   1.399       .  A
C165        H175   1.083       .  S
C166        C167   1.403       .  A
C166        C171   1.478       .  S
C167        C168   1.398       .  A
C167        H172   1.083       .  S
C168        C169   1.406       .  A
C168        H173   1.083       .  S
C169        C170   1.406       .  A
C170        H174   1.083       .  S
C171        C176   1.404       .  A
C171        C180   1.402       .  A
C176        C177   1.401       .  A
C176        H181   1.083       .  S
C177        C178   1.407       .  A
C177        H182   1.083       .  S
C178        C179   1.408       .  A
C179        C180   1.396       .  A
C179        H183   1.083       .  S
C180        H184   1.083       .  S
C185        C186   1.404       .  A
C185        C190   1.397       .  A
C185        H195   1.083       .  S
C186        C187   1.405       .  A
C186        C191   1.482       .  S
C187        C188   1.400       .  A
C187        H192   1.083       .  S
C188        C189   1.406       .  A
C188        H193   1.083       .  S
C189        C190   1.405       .  A
C190        H194   1.083       .  S
C191        C196   1.405       .  A
C191        C200   1.404       .  A
C196        C197   1.398       .  A
C196        H201   1.083       .  S
C197        C198   1.405       .  A
C197        H202   1.083       .  S
C198        C199   1.407       .  A
C199        C200   1.398       .  A
C199        H203   1.083       .  S
C200        H204   1.083       .  S
C205        C206   1.403       .  A
C205        C210   1.399       .  A
C205        H215   1.083       .  S
C206        C207   1.402       .  A
C206        C211   1.479       .  S
C207        C208   1.397       .  A
C207        H212   1.083       .  S
C208        C209   1.409       .  A
C208        H213   1.083       .  S
C209        C210   1.409       .  A
C210        H214   1.082       .  S
C211        C216   1.403       .  A
C211        C220   1.403       .  A
C216        C217   1.399       .  A
C216        H221   1.083       .  S
C217        C218   1.408       .  A
C217        H222   1.083       .  S
C218        C219   1.406       .  A
C219        C220   1.398       .  A
C219        H223   1.083       .  S
C220        H224   1.084       .  S
C225        C226   1.404   1_554  A
C225        C230   1.397       .  A
C225        H235   1.083       .  S
C226        C227   1.405       .  A
C226        C231   1.481       .  S
C227        C228   1.399       .  A
C227        H232   1.083       .  S
C228        C229   1.405       .  A
C228        H233   1.083       .  S
C229        C230   1.405   1_556  A
C230        H234   1.083       .  S
C231        C236   1.403       .  A
C231        C240   1.404   1_556  A
C236        C237   1.396       .  A
C236        H241   1.083       .  S
C237        C238   1.407       .  A
C237        H242   1.083       .  S
C238        C239   1.407   1_556  A
C239        C240   1.399       .  A
C239        H243   1.082       .  S
C240        H244   1.083       .  S
C245        C246   1.407       .  A
C245        C250   1.394       .  A
C245        H255   1.082       .  S
C246        C247   1.409       .  A
C246        C251   1.490       .  S
C247        C248   1.400       .  A
C247        H252   1.083       .  S
C248        C249   1.402       .  A
C248        H253   1.083       .  S
C249        C250   1.401       .  A
C250        H254   1.084       .  S
C251        C256   1.408       .  A
C251        C260   1.407       .  A
C256        C257   1.396       .  A
C256        H261   1.083       .  S
C257        C258   1.404       .  A
C257        H262   1.083       .  S
C258        C259   1.405       .  A
C259        C260   1.398       .  A
C259        H263   1.083       .  S
C260        H264   1.082       .  S
C265        C266   1.405   1_554  A
C265        C270   1.398       .  A
C265        H275   1.083       .  S
C266        C267   1.406       .  A
C266        C271   1.484       .  S
C267        C268   1.399       .  A
C267        H272   1.083       .  S
C268        C269   1.404       .  A
C268        H273   1.083       .  S
C269        C270   1.404   1_556  A
C270        H274   1.083       .  S
C271        C276   1.405   1_556  A
C271        C280   1.405       .  A
C276        C277   1.400       .  A
C276        H281   1.083       .  S
C277        C278   1.406   1_554  A
C277        H282   1.083       .  S
C278        C279   1.406       .  A
C279        C280   1.398       .  A
C279        H283   1.083       .  S
C280        H284   1.083       .  S
C285        C286   1.409       .  A
C285        C290   1.400       .  A
C285        H295   1.082       .  S
C286        C287   1.407       .  A
C286        C291   1.493       .  S
C287        C288   1.396       .  A
C287        H292   1.082       .  S
C288        C289   1.405       .  A
C288        H293   1.083       .  S
C289        C290   1.405       .  A
C290        H294   1.083   1_545  S
C291        C296   1.407       .  A
C291        C300   1.407       .  A
C296        C297   1.399       .  A
C296        H301   1.082       .  S
C297        C298   1.408       .  A
C297        H302   1.082       .  S
C298        C299   1.406       .  A
C299        C300   1.397       .  A
C299        H303   1.082       .  S
C300        H304   1.082       .  S
C305        C306   1.405       .  A
C305        C310   1.398       .  A
C305        H315   1.083       .  S
C306        C307   1.405       .  A
C306        C311   1.482       .  S
C307        C308   1.398       .  A
C307        H312   1.083       .  S
C308        C309   1.405       .  A
C308        H313   1.083       .  S
C309        C310   1.404       .  A
C310        H314   1.083       .  S
C311        C316   1.405       .  A
C311        C320   1.405       .  A
C316        C317   1.397       .  A
C316        H321   1.083       .  S
C317        C318   1.404       .  A
C317        H322   1.083       .  S
C318        C319   1.405       .  A
C319        C320   1.399       .  A
C319        H323   1.083       .  S
C320        H324   1.083       .  S
C325        C326   1.404       .  A
C325        C330   1.398       .  A
C325        H335   1.083   1_556  S
C326        C327   1.405       .  A
C326        C331   1.482       .  S
C327        C328   1.401       .  A
C327        H332   1.083       .  S
C328        C329   1.406       .  A
C328        H333   1.083       .  S
C329        C330   1.405       .  A
C330        H334   1.083   1_556  S
C331        C336   1.404       .  A
C331        C340   1.405       .  A
C336        C337   1.398       .  A
C336        H341   1.083   1_556  S
C337        C338   1.405       .  A
C337        H342   1.083   1_556  S
C338        C339   1.405       .  A
C339        C340   1.400       .  A
C339        H343   1.083       .  S
C340        H344   1.083       .  S
C345        C346   1.404       .  A
C345        C350   1.399       .  A
C345        H355   1.083       .  S
C346        C347   1.404       .  A
C346        C351   1.481       .  S
C347        C348   1.398   1_455  A
C347        H352   1.083   1_455  S
C348        C349   1.406   1_655  A
C348        H353   1.083       .  S
C349        C350   1.405       .  A
C350        H354   1.083       .  S
C351        C356   1.404       .  A
C351        C360   1.403       .  A
C356        C357   1.400       .  A
C356        H361   1.083       .  S
C357        C358   1.408       .  A
C357        H362   1.082       .  S
C358        C359   1.408       .  A
C359        C360   1.397       .  A
C359        H363   1.083   1_556  S
C360        H364   1.083   1_556  S
C365        C366   1.407       .  A
C365        C370   1.399       .  A
C365        H375   1.082       .  S
C366        C367   1.407   1_565  A
C366        C371   1.490       .  S
C367        C368   1.396       .  A
C367        H372   1.082       .  S
C368        C369   1.404   1_545  A
C368        H373   1.083       .  S
C369        C370   1.406       .  A
C370        H374   1.083       .  S
C371        C376   1.408       .  A
C371        C380   1.407   1_665  A
C376        C377   1.399       .  A
C376        H381   1.082       .  S
C377        C378   1.405       .  A
C377        H382   1.083       .  S
C378        C379   1.404   1_665  A
C379        C380   1.396       .  A
C379        H383   1.083       .  S
C380        H384   1.082       .  S
C385        C386   1.407   1_455  A
C385        C390   1.397       .  A
C385        H395   1.082       .  S
C386        C387   1.406       .  A
C386        C391   1.487       .  S
C387        C388   1.397       .  A
C387        H392   1.083       .  S
C388        C389   1.405       .  A
C388        H393   1.083       .  S
C389        C390   1.404   1_655  A
C390        H394   1.083       .  S
C391        C396   1.406   1_655  A
C391        C400   1.407       .  A
C396        C397   1.396       .  A
C396        H401   1.083       .  S
C397        C398   1.405   1_455  A
C397        H402   1.083       .  S
C398        C399   1.405       .  A
C399        C400   1.398       .  A
C399        H403   1.083   1_565  S
C400        H404   1.083   1_565  S
C405        C406   1.408       .  A
C405        C410   1.395       .  A
C405        H415   1.082       .  S
C406        C407   1.409       .  A
C406        C411   1.490       .  S
C407        C408   1.398       .  A
C407        H412   1.082       .  S
C408        C409   1.401       .  A
C408        H413   1.083       .  S
C409        C410   1.401       .  A
C410        H414   1.083       .  S
C411        C416   1.406   1_565  A
C411        C420   1.407       .  A
C416        C417   1.396       .  A
C416        H421   1.082       .  S
C417        C418   1.407       .  A
C417        H422   1.082       .  S
C418        C419   1.407       .  A
C419        C420   1.398   1_545  A
C419        H423   1.082       .  S
C420        H424   1.082       .  S
C425        C426   1.405       .  A
C425        C430   1.397       .  A
C425        H435   1.083       .  S
C426        C427   1.407       .  A
C426        C431   1.483       .  S
C427        C428   1.400       .  A
C427        H432   1.083       .  S
C428        C429   1.403       .  A
C428        H433   1.083       .  S
C429        C430   1.403       .  A
C430        H434   1.083       .  S
C431        C436   1.405       .  A
C431        C440   1.405       .  A
C436        C437   1.399       .  A
C436        H441   1.083       .  S
C437        C438   1.405       .  A
C437        H442   1.083       .  S
C438        C439   1.405       .  A
C439        C440   1.397       .  A
C439        H443   1.083       .  S
C440        H444   1.083       .  S
C445        C446   1.405       .  A
C445        C450   1.395       .  A
C445        H455   1.082       .  S
C446        C447   1.409       .  A
C446        C451   1.493       .  S
C447        C448   1.401       .  A
C447        H452   1.082       .  S
C448        C449   1.407       .  A
C448        H453   1.082       .  S
C449        C450   1.408       .  A
C450        H454   1.082       .  S
C451        C456   1.409       .  A
C451        C460   1.408       .  A
C456        C457   1.397       .  A
C456        H461   1.082       .  S
C457        C458   1.403       .  A
C457        H462   1.083       .  S
C458        C459   1.405       .  A
C459        C460   1.399       .  A
C459        H463   1.083       .  S
C460        H464   1.082       .  S
C465        C466   1.409       .  A
C465        C470   1.397       .  A
C465        H475   1.082       .  S
C466        C467   1.409   1_556  A
C466        C471   1.492       .  S
C467        C468   1.399       .  A
C467        H472   1.082       .  S
C468        C469   1.402   1_554  A
C468        H473   1.083       .  S
C469        C470   1.400       .  A
C470        H474   1.083       .  S
C471        C476   1.406   1_565  A
C471        C480   1.408       .  A
C476        C477   1.396       .  A
C476        H481   1.082       .  S
C477        C478   1.407       .  A
C477        H482   1.082       .  S
C478        C479   1.407       .  A
C479        C480   1.400   1_545  A
C479        H483   1.082   1_556  S
C480        H484   1.082   1_556  S
C485        C486   1.405   1_554  A
C485        C490   1.395       .  A
C485        H495   1.083       .  S
C486        C487   1.407       .  A
C486        C491   1.490       .  S
C487        C488   1.400       .  A
C487        H492   1.082       .  S
C488        C489   1.407       .  A
C488        H493   1.083       .  S
C489        C490   1.407   1_556  A
C490        H494   1.082       .  S
C491        C496   1.408   1_556  A
C491        C500   1.407       .  A
C496        C497   1.397       .  A
C496        H501   1.082       .  S
C497        C498   1.403   1_554  A
C497        H502   1.084       .  S
C498        C499   1.405       .  A
C499        C500   1.398       .  A
C499        H503   1.083       .  S
C500        H504   1.083       .  S
C505        C506   1.409       .  A
C505        C510   1.399       .  A
C505        H515   1.082       .  S
C506        C507   1.408   1_556  A
C506        C511   1.491       .  S
C507        C508   1.397       .  A
C507        H512   1.083       .  S
C508        C509   1.402   1_554  A
C508        H513   1.083       .  S
C509        C510   1.401       .  A
C510        H514   1.083       .  S
C511        C516   1.407       .  A
C511        C520   1.408       .  A
C516        C517   1.398       .  A
C516        H521   1.082       .  S
C517        C518   1.405       .  A
C517        H522   1.083       .  S
C518        C519   1.405       .  A
C519        C520   1.398       .  A
C519        H523   1.083   1_556  S
C520        H524   1.082   1_556  S
C525        C526   1.408       .  A
C525        C530   1.398       .  A
C525        H535   1.082       .  S
C526        C527   1.407       .  A
C526        C531   1.490       .  S
C527        C528   1.396       .  A
C527        H532   1.082       .  S
C528        C529   1.406       .  A
C528        H533   1.083       .  S
C529        C530   1.405       .  A
C530        H534   1.083       .  S
C531        C536   1.409   1_655  A
C531        C540   1.408   1_655  A
C536        C537   1.398       .  A
C536        H541   1.082   1_455  S
C537        C538   1.401       .  A
C537        H542   1.083       .  S
C538        C539   1.401       .  A
C539        C540   1.396       .  A
C539        H543   1.083       .  S
C540        H544   1.082       .  S
C545        C546   1.409       .  A
C545        C550   1.399       .  A
C545        H555   1.083       .  S
C546        C547   1.407       .  A
C546        C551   1.489       .  S
C547        C548   1.395       .  A
C547        H552   1.082       .  S
C548        C549   1.402       .  A
C548        H553   1.084       .  S
C549        C550   1.402       .  A
C550        H554   1.083       .  S
C551        C556   1.407       .  A
C551        C560   1.408       .  A
C556        C557   1.397       .  A
C556        H561   1.082       .  S
C557        C558   1.404       .  A
C557        H562   1.083       .  S
C558        C559   1.404       .  A
C559        C560   1.397       .  A
C559        H563   1.083       .  S
C560        H564   1.083       .  S
C565        C566   1.404       .  A
C565        C570   1.399       .  A
C565        H575   1.083       .  S
C566        C567   1.403       .  A
C566        C571   1.480       .  S
C567        C568   1.397       .  A
C567        H572   1.083       .  S
C568        C569   1.406       .  A
C568        H573   1.083       .  S
C569        C570   1.407       .  A
C570        H574   1.083       .  S
C571        C576   1.404       .  A
C571        C580   1.406       .  A
C576        C577   1.397       .  A
C576        H581   1.083       .  S
C577        C578   1.403       .  A
C577        H582   1.083       .  S
C578        C579   1.403       .  A
C579        C580   1.399       .  A
C579        H583   1.083       .  S
C580        H584   1.083       .  S
C585        C586   1.410       .  A
C585        C590   1.400       .  A
C585        H595   1.082       .  S
C586        C587   1.407   1_554  A
C586        C591   1.492       .  S
C587        C588   1.395       .  A
C587        H592   1.082       .  S
C588        C589   1.404   1_556  A
C588        H593   1.083       .  S
C589        C590   1.403       .  A
C590        H594   1.083       .  S
C591        C596   1.406       .  A
C591        C600   1.407   1_654  A
C596        C597   1.398   1_655  A
C596        H601   1.082       .  S
C597        C598   1.408   1_554  A
C597        H602   1.082       .  S
C598        C599   1.408       .  A
C599        C600   1.397       .  A
C599        H603   1.082       .  S
C600        H604   1.082       .  S
C605        C606   1.406   1_554  A
C605        C610   1.396       .  A
C605        H615   1.083       .  S
C606        C607   1.407       .  A
C606        C611   1.486       .  S
C607        C608   1.397       .  A
C607        H612   1.082       .  S
C608        C609   1.404       .  A
C608        H613   1.083       .  S
C609        C610   1.405   1_556  A
C610        H614   1.083       .  S
C611        C616   1.407   1_556  A
C611        C620   1.405       .  A
C616        C617   1.398       .  A
C616        H621   1.082       .  S
C617        C618   1.406   1_554  A
C617        H622   1.083       .  S
C618        C619   1.406       .  A
C619        C620   1.395       .  A
C619        H623   1.082       .  S
C620        H624   1.083       .  S
C625        C626   1.403   1_554  A
C625        C630   1.398       .  A
C625        H635   1.083       .  S
C626        C627   1.403       .  A
C626        C631   1.478   1_556  S
C627        C628   1.397       .  A
C627        H632   1.083       .  S
C628        C629   1.406       .  A
C628        H633   1.083       .  S
C629        C630   1.407   1_556  A
C630        H634   1.083       .  S
C631        C636   1.405       .  A
C631        C640   1.404   1_554  A
C636        C637   1.398       .  A
C636        H641   1.083       .  S
C637        C638   1.403       .  A
C637        H642   1.083       .  S
C638        C639   1.404   1_554  A
C639        C640   1.397       .  A
C639        H643   1.083       .  S
C640        H644   1.083       .  S
