geometry optimzed in LAMMPS
_audit_creation_date              2020-11-30 
_audit_creation_method            'lammps2cif' 
_symmetry_space_group_name_H-M    'P1' 
_symmetry_Int_Tables_number       1 
_symmetry_cell_setting            triclinic 
loop_ 
_symmetry_equiv_pos_as_xyz 
  x,y,z 
_cell_length_a                    44.82184536 
_cell_length_b                    44.8465065135299 
_cell_length_c                    44.73108637918947 
_cell_angle_alpha                 90.02196522958833 
_cell_angle_beta                  89.86757090436711 
_cell_angle_gamma                 90.15952921796918 
loop_ 
_atom_site_label 
_atom_site_type_symbol 
_atom_site_fract_x 
_atom_site_fract_y 
_atom_site_fract_z 
_atom_site_charge 
C1          C  0.82666618  0.49722929  0.72321296     0.03700
C2          C  0.79502144  0.49669626  0.72424200     0.03600
C3          C  0.78048486  0.49544899  0.75202189    -0.16900
C4          C  0.79620948  0.49575211  0.77907526     0.03700
C5          C  0.82780104  0.49664884  0.77835584     0.03600
C6          C  0.84261048  0.49702748  0.75044633    -0.16900
H7          H  0.86678755  0.49746638  0.74995392     0.05700
H8          H  0.75628719  0.49477150  0.75259962     0.05700
C9          C  0.49824600  0.72735427  0.83801018     0.03700
C10         C  0.50101339  0.72933043  0.80648916     0.03600
C11         C  0.50018539  0.75728883  0.79275776    -0.16900
C12         C  0.49649789  0.78349326  0.80926126     0.03700
C13         C  0.49405453  0.78196877  0.84074638     0.03600
C14         C  0.49464237  0.75382690  0.85470410    -0.16900
H15         H  0.49228096  0.75255759  0.87877060     0.05700
H16         H  0.50197169  0.75864595  0.76861330     0.05700
C17         C  0.76352402  0.80065852  0.47598690     0.03700
C18         C  0.76477067  0.83179502  0.47997118     0.03600
C19         C  0.73826636  0.84772225  0.48480254    -0.16900
C20         C  0.71045878  0.83310590  0.48570008     0.03700
C21         C  0.70920590  0.80168252  0.48196374     0.03600
C22         C  0.73590254  0.78605685  0.47701630    -0.16900
H23         H  0.73542925  0.76191751  0.47524569     0.05700
H24         H  0.73927876  0.87173204  0.48777800     0.05700
Zn25       Zn  0.51488958  0.45443032  0.91694519     1.49700
Zn26       Zn  0.57603301  0.41880386  0.91447266     1.49400
Zn27       Zn  0.57336273  0.47854974  0.95205291     1.49100
Zn28       Zn  0.53957437  0.41872545  0.97491343     1.49500
O29         O  0.55068859  0.44288744  0.93986727    -1.82700
O30         O  0.51443938  0.43585595  0.87501540    -0.73400
O31         O  0.61552023  0.43787899  0.90747475    -0.73200
O32         O  0.55334555  0.51562111  0.93618433    -0.72700
O33         O  0.55717559  0.41124325  0.87504961    -0.73400
O34         O  0.51274994  0.49942084  0.91259562    -0.73000
O35         O  0.61591917  0.47866146  0.93537045    -0.73600
O36         O  0.55359888  0.43919311  0.01281854    -0.73000
O37         O  0.58536469  0.37936308  0.93259716    -0.73700
O38         O  0.57613161  0.48072969  0.99725845    -0.73100
O39         O  0.56002673  0.37812459  0.97504861    -0.73600
O40         O  0.49460675  0.41231147  0.97579126    -0.73500
O41         O  0.47770887  0.43943118  0.93777075    -0.73300
C42         C  0.53320884  0.41883256  0.86204239     0.78500
C43         C  0.62892977  0.46078385  0.91743654     0.79000
C44         C  0.52985610  0.52060949  0.92095919     0.78000
C45         C  0.56798397  0.46318818  0.01820668     0.78300
C46         C  0.57812419  0.36612417  0.95664928     0.79500
C47         C  0.47310773  0.42206725  0.95988917     0.78500
Zn48       Zn  0.57133731  0.52210786  0.54930775     1.49700
Zn49       Zn  0.57621894  0.58464819  0.58217382     1.49400
Zn50       Zn  0.53634171  0.57937857  0.52395255     1.49100
Zn51       Zn  0.51574927  0.54868008  0.58675344     1.49500
O52         O  0.54960033  0.55852010  0.56034076    -1.82700
O53         O  0.61215690  0.52026918  0.56954091    -0.73400
O54         O  0.58466273  0.62207264  0.55974914    -0.73200
O55         O  0.54908052  0.55670636  0.48693840    -0.72700
O56         O  0.61470338  0.56461227  0.59122347    -0.73400
O57         O  0.57658915  0.51943146  0.50427226    -0.73000
O58         O  0.55506768  0.62110040  0.52018583    -0.73600
O59         O  0.47771286  0.56378386  0.56812466    -0.73000
O60         O  0.55935830  0.59661668  0.62170199    -0.73700
O61         O  0.49133669  0.58321358  0.52428862    -0.73100
O62         O  0.51873298  0.56906840  0.62764269    -0.73600
O63         O  0.51212198  0.50364902  0.59193666    -0.73500
O64         O  0.54835927  0.48579274  0.56308176    -0.73300
C65         C  0.62598153  0.53921760  0.58570369     0.78500
C66         C  0.57461371  0.63427074  0.53620967     0.79000
C67         C  0.56588640  0.53423280  0.48244699     0.78000
C68         C  0.47133949  0.57664000  0.54355247     0.78300
C69         C  0.53717590  0.58845148  0.63744264     0.79500
C70         C  0.52615563  0.48166410  0.58047104     0.78500
Zn71       Zn  0.41346373  0.97877380  0.54760923     1.49700
Zn72       Zn  0.40720556  0.91977267  0.58638986     1.49400
Zn73       Zn  0.44311262  0.91658172  0.52611965     1.49100
Zn74       Zn  0.47017822  0.95120472  0.58272560     1.49500
O75         O  0.43368380  0.94194883  0.56043781    -1.82700
O76         O  0.37177218  0.98243897  0.56645062    -0.73400
O77         O  0.39279272  0.88256570  0.56728970    -0.73200
O78         O  0.42914234  0.93607493  0.48818535    -0.72700
O79         O  0.37111387  0.94301901  0.59632676    -0.73400
O80         O  0.40955610  0.97948563  0.50219209    -0.73000
O81         O  0.42157687  0.87679608  0.52749629    -0.73600
O82         O  0.50691357  0.93739787  0.55969870    -0.73000
O83         O  0.42698629  0.90736405  0.62422290    -0.73700
O84         O  0.48750768  0.90966108  0.52335416    -0.73100
O85         O  0.47104820  0.92989449  0.62289197    -0.73600
O86         O  0.47241620  0.99554235  0.59052497    -0.73500
O87         O  0.43649153  0.01492526  0.56226416    -0.73300
C88         C  0.35893940  0.96654145  0.58637116     0.78500
C89         C  0.40089498  0.86747938  0.54470819     0.79000
C90         C  0.41623424  0.96055033  0.48192525     0.78000
C91         C  0.51004735  0.91981236  0.53745946     0.78300
C92         C  0.45222366  0.91290961  0.63587977     0.79500
C93         C  0.45813772  0.01796927  0.58051108     0.78500
C94         C  0.49778544  0.27663467  0.66486655     0.03700
C95         C  0.49913989  0.27758416  0.69644133     0.03600
C96         C  0.50018503  0.25072101  0.71245247    -0.16900
C97         C  0.49895151  0.22295915  0.69804764     0.03700
C98         C  0.49666416  0.22201214  0.66648629     0.03600
C99         C  0.49639021  0.24889456  0.65025955    -0.16900
H100        H  0.49493684  0.24822785  0.62605896     0.05700
H101        H  0.50133564  0.25145393  0.73667845     0.05700
Zn102      Zn  0.40884642  0.08569496  0.91724121     1.49700
Zn103      Zn  0.40727989  0.02601993  0.95315434     1.49400
Zn104      Zn  0.46896847  0.04957624  0.92337866     1.49100
Zn105      Zn  0.44024583  0.08450698  0.98015181     1.49500
O106        O  0.43174851  0.06116016  0.94383804    -1.82700
O107        O  0.37056780  0.06723277  0.90511886    -0.73400
O108        O  0.42846141  0.98899442  0.93997728    -0.73200
O109        O  0.47309974  0.06937912  0.88196948    -0.72700
O110        O  0.36726124  0.02587324  0.93175906    -0.73400
O111        O  0.43108129  0.09503997  0.88051060    -0.73000
O112        O  0.47106318  0.00446407  0.91934424    -0.73600
O113        O  0.48500642  0.08903885  0.98559751    -0.73000
O114        O  0.39943725  0.02353815  0.99740117    -0.73700
O115        O  0.50428560  0.06338428  0.94759217    -0.73100
O116        O  0.42183936  0.06389084  0.01593530    -0.73600
O117        O  0.42192364  0.12607403  0.97900588    -0.73500
O118        O  0.39872901  0.12423616  0.93548966    -0.73300
C119        C  0.35638781  0.04390761  0.91273045     0.78500
C120        C  0.45309467  0.98362551  0.92684027     0.79000
C121        C  0.45570645  0.08760031  0.86875225     0.78000
C122        C  0.50746447  0.07931748  0.97097554     0.78300
C123        C  0.40622110  0.04031013  0.01936214     0.79500
C124        C  0.40518763  0.13797045  0.95939830     0.78500
C125        C  0.71279809  0.16341992  0.00136803     0.03700
C126        C  0.71346718  0.19497639  0.00211420     0.03600
C127        C  0.74085771  0.20953435  0.00554508    -0.16900
C128        C  0.76749294  0.19368498  0.00811264     0.03700
C129        C  0.76722039  0.16229537  0.00671210     0.03600
C130        C  0.73977273  0.14737761  0.00323626    -0.16900
H131        H  0.73930751  0.12319334  0.00279218     0.05700
H132        H  0.74155958  0.23374652  0.00595901     0.05700
C133        C  0.18729367  0.00722900  0.72027186     0.03700
C134        C  0.15563274  0.00674996  0.72002969     0.03600
C135        C  0.14014355  0.00784982  0.74749416    -0.16900
C136        C  0.15533967  0.00877621  0.77499153     0.03700
C137        C  0.18689189  0.00910368  0.77484182     0.03600
C138        C  0.20225077  0.00842447  0.74764855    -0.16900
H139        H  0.22647277  0.00863331  0.74784095     0.05700
H140        H  0.11597255  0.00757688  0.74749203     0.05700
C141        C  0.97653626  0.77946085  0.19303033     0.03700
C142        C  0.97890149  0.77946383  0.16138024     0.03600
C143        C  0.97674561  0.75196341  0.14609428    -0.16900
C144        C  0.97293400  0.72484869  0.16164847     0.03700
C145        C  0.97081033  0.72523568  0.19318243     0.03600
C146        C  0.97223326  0.75246892  0.20829020    -0.16900
H147        H  0.97125745  0.75250140  0.23252799     0.05700
H148        H  0.97779396  0.75161320  0.12189518     0.05700
C149        C  0.26867015  0.69520783  0.50223406     0.03700
C150        C  0.26839071  0.66384190  0.50506099     0.03600
C151        C  0.24105767  0.64848529  0.50245284    -0.16900
C152        C  0.21438321  0.66386682  0.49642742     0.03700
C153        C  0.21503719  0.69525702  0.49321790     0.03600
C154        C  0.24213536  0.71039225  0.49655606    -0.16900
H155        H  0.24254216  0.73458070  0.49525421     0.05700
H156        H  0.24064601  0.62434882  0.50424454     0.05700
C157        C  0.65458572  0.50111433  0.22306406     0.03700
C158        C  0.68614536  0.50268384  0.22381478     0.03600
C159        C  0.70076494  0.50700800  0.25108498    -0.16900
C160        C  0.68495186  0.50924588  0.27790096     0.03700
C161        C  0.65358867  0.50717754  0.27764156     0.03600
C162        C  0.63863799  0.50330808  0.25024116    -0.16900
H163        H  0.61448095  0.50243870  0.25009182     0.05700
H164        H  0.72495231  0.50802428  0.25153388     0.05700
Zn165      Zn  0.92602909  0.53502442  0.40143073     1.49700
Zn166      Zn  0.95993861  0.53026553  0.46589336     1.49400
Zn167      Zn  0.95291968  0.59329781  0.43006918     1.49100
Zn168      Zn  0.89605779  0.56301094  0.45975480     1.49500
O169        O  0.93402550  0.55507646  0.43954313    -1.82700
O170        O  0.94529956  0.49481847  0.40145139    -0.73400
O171        O  0.00002952  0.55219935  0.47296031    -0.73200
O172        O  0.95990406  0.59872080  0.38582878    -0.72700
O173        O  0.96834456  0.48980822  0.44517601    -0.73400
O174        O  0.94016736  0.55853478  0.36486416    -0.73000
O175        O  0.99268593  0.59527524  0.44957534    -0.73600
O176        O  0.88911954  0.60696100  0.46482206    -0.73000
O177        O  0.93914641  0.52262807  0.50704681    -0.73700
O178        O  0.92822407  0.62865985  0.44348796    -0.73100
O179        O  0.89556818  0.54512359  0.50071240    -0.73600
O180        O  0.86068282  0.54719303  0.43653488    -0.73500
O181        O  0.88204660  0.52830204  0.39602276    -0.73300
C182        C  0.96078904  0.47941966  0.41960258     0.78500
C183        C  0.00908599  0.57815752  0.46510566     0.79000
C184        C  0.95332783  0.58367051  0.36263152     0.78000
C185        C  0.90322117  0.63034103  0.45693998     0.78300
C186        C  0.91341658  0.53023590  0.51697203     0.79500
C187        C  0.85878864  0.53430628  0.41123997     0.78500
Zn188      Zn  0.07118533  0.90836263  0.41701677     1.49700
Zn189      Zn  0.01294233  0.94786076  0.41937062     1.49400
Zn190      Zn  0.03666887  0.91326824  0.47868532     1.49100
Zn191      Zn  0.07292212  0.96978696  0.45183241     1.49500
O192        O  0.04816232  0.93498891  0.44205225    -1.82700
O193        O  0.05076061  0.89969123  0.37890088    -0.73400
O194        O  0.97579246  0.93562852  0.44162547    -0.73200
O195        O  0.05406913  0.87123244  0.47979104    -0.72700
O196        O  0.01013813  0.92752589  0.37846332    -0.73400
O197        O  0.07763893  0.86914816  0.43620986    -0.73000
O198        O  0.99138206  0.91004769  0.48119608    -0.73600
O199        O  0.07801410  0.97325731  0.49628715    -0.73000
O200        O  0.01307333  0.99282863  0.41350781    -0.73700
O201        O  0.05310425  0.93453061  0.51514149    -0.73100
O202        O  0.05407853  0.00787812  0.43686478    -0.73600
O203        O  0.11409514  0.96711351  0.43292646    -0.73500
O204        O  0.11120938  0.92501918  0.40714810    -0.73300
C205        C  0.02706997  0.90827959  0.36612651     0.78500
C206        C  0.97032413  0.92006096  0.46484676     0.79000
C207        C  0.06996598  0.85723581  0.46077812     0.78000
C208        C  0.06924650  0.95776239  0.51849357     0.78300
C209        C  0.03072501  0.01363389  0.42172751     0.79500
C210        C  0.12557728  0.94815122  0.41510680     0.78500
Zn211      Zn  0.92794661  0.45803301  0.09913849     1.49700
Zn212      Zn  0.89423341  0.43504958  0.04026008     1.49400
Zn213      Zn  0.95832248  0.46714472  0.03405881     1.49100
Zn214      Zn  0.95177419  0.40215355  0.06477677     1.49500
O215        O  0.93315609  0.44085194  0.05934078    -1.82700
O216        O  0.88444803  0.46406202  0.10729373    -0.73400
O217        O  0.89285935  0.45526813  0.00019065    -0.73200
O218        O  0.96517539  0.50722852  0.05530320    -0.72700
O219        O  0.86059094  0.45053276  0.06603809    -0.73400
O220        O  0.94659617  0.49856690  0.10060282    -0.73000
O221        O  0.93792635  0.47505639  0.99372456    -0.73600
O222        O  0.99100013  0.40176402  0.04407450    -0.73000
O223        O  0.88590780  0.39143981  0.03309475    -0.73700
O224        O  0.99863072  0.44719904  0.02575695    -0.73100
O225        O  0.92632238  0.36839509  0.04973362    -0.73600
O226        O  0.96004619  0.39302096  0.10790529    -0.73500
O227        O  0.94456689  0.43254977  0.13298073    -0.73300
C228        C  0.86036646  0.46077977  0.09258815     0.78500
C229        C  0.91169042  0.46935439  0.98411715     0.79000
C230        C  0.95951392  0.51579169  0.08198812     0.78000
C231        C  0.00750588  0.42057672  0.03058906     0.78300
C232        C  0.90044584  0.36762819  0.03815125     0.79500
C233        C  0.95630539  0.40671765  0.13252616     0.78500
C234        C  0.29348439  0.99399235  0.28011679     0.03700
C235        C  0.32504160  0.99326656  0.27908767     0.03600
C236        C  0.33943313  0.99585026  0.25115967    -0.16900
C237        C  0.32301296  0.99958086  0.22457269     0.03700
C238        C  0.29150442  0.00135497  0.22612975     0.03600
C239        C  0.27728280  0.99837440  0.25380113    -0.16900
H240        H  0.25311008  0.99933071  0.25487050     0.05700
H241        H  0.36357716  0.99505106  0.25009913     0.05700
Zn242      Zn  0.03973289  0.08289930  0.02246263     1.49700
Zn243      Zn  0.07498623  0.02474280  0.04766625     1.49400
Zn244      Zn  0.07434497  0.08624417  0.08376589     1.49100
Zn245      Zn  0.01473588  0.04775171  0.08003709     1.49500
O246        O  0.05084830  0.06012391  0.05825558    -1.82700
O247        O  0.05543800  0.06199735  0.98590998    -0.73400
O248        O  0.11655337  0.02662561  0.06653690    -0.73200
O249        O  0.08005782  0.12718316  0.06653327    -0.72700
O250        O  0.07960556  0.02194755  0.00248880    -0.73400
O251        O  0.05853696  0.12433549  0.02203319    -0.73000
O252        O  0.11475809  0.06972689  0.09062164    -0.73600
O253        O  0.01367368  0.06484802  0.12239499    -0.73000
O254        O  0.05493894  0.98675143  0.06257771    -0.73700
O255        O  0.05611838  0.09043698  0.12408973    -0.73100
O256        O  0.01249041  0.00272110  0.08281163    -0.73600
O257        O  0.97784704  0.06235246  0.05890264    -0.73500
O258        O  0.99453004  0.08727742  0.01935621    -0.73300
C259        C  0.07086599  0.03863373  0.98114203     0.78500
C260        C  0.12869865  0.04622921  0.08329011     0.79000
C261        C  0.07356967  0.13874386  0.04143730     0.78000
C262        C  0.03226428  0.08122494  0.13641677     0.78300
C263        C  0.03010010  0.98160254  0.07561501     0.79500
C264        C  0.97298473  0.07791482  0.03558097     0.78500
C265        C  0.00019831  0.27450114  0.33696727     0.03700
C266        C  0.00260448  0.27478881  0.30543752     0.03600
C267        C  0.00608918  0.24786474  0.29006164    -0.16900
C268        C  0.00748105  0.22049147  0.30500863     0.03700
C269        C  0.00460517  0.21984305  0.33650192     0.03600
C270        C  0.00075259  0.24689901  0.35215452    -0.16900
H271        H  0.99913377  0.24655092  0.37635499     0.05700
H272        H  0.00729625  0.24818747  0.26580991     0.05700
C273        C  0.26646974  0.33787770  0.98860057     0.03700
C274        C  0.26658984  0.30648038  0.99076520     0.03600
C275        C  0.23986389  0.29126856  0.99627238    -0.16900
C276        C  0.21291202  0.30646144  0.99996228     0.03700
C277        C  0.21247278  0.33791904  0.99710818     0.03600
C278        C  0.23932132  0.35327848  0.99121031    -0.16900
H279        H  0.23929429  0.37745367  0.98992551     0.05700
H280        H  0.24005956  0.26708810  0.99789686     0.05700
C281        C  0.10644293  0.21607811  0.05087656    -0.26800
C282        C  0.11817492  0.22155852  0.02219052     0.06800
C283        C  0.11184781  0.20101340  0.99916104     0.26400
C284        C  0.09526211  0.17516486  0.00515488    -0.11300
C285        C  0.08544489  0.16877726  0.03428863    -0.25200
C286        C  0.09053488  0.18988910  0.05700268     0.37200
C287        C  0.13996807  0.24638519  0.01764971     0.06800
F288        F  0.12379937  0.20445303  0.97147725    -0.19000
H289        H  0.09195872  0.15906400  0.98738097     0.16600
F290        F  0.08088491  0.18482415  0.08534851    -0.22700
H291        H  0.11066207  0.23160635  0.06896222     0.18400
C292        C  0.13941325  0.26487999  0.99213132     0.26400
C293        C  0.16243314  0.28556621  0.98698754    -0.11300
C294        C  0.18611391  0.28830003  0.00729129    -0.25300
C295        C  0.18573522  0.27115111  0.03354323     0.37300
C296        C  0.16297862  0.25044844  0.03859450    -0.26900
F297        F  0.11683703  0.26282557  0.97207127    -0.19100
H298        H  0.16231458  0.29874888  0.96671265     0.16600
F299        F  0.20798710  0.27384977  0.05391966    -0.22800
H300        H  0.16408614  0.23665495  0.05841692     0.18500
C301        C  0.04545684  0.11002685  0.21430225    -0.26800
C302        C  0.01790807  0.12343144  0.22077789     0.06800
C303        C  0.99372102  0.11850948  0.20128305     0.26400
C304        C  0.99778622  0.10218851  0.17485828    -0.11300
C305        C  0.02607954  0.09120700  0.16723261    -0.25200
C306        C  0.04963524  0.09427553  0.18772009     0.37200
C307        C  0.01623200  0.14608756  0.24495382     0.06800
F308        F  0.96700615  0.13182002  0.20620918    -0.19000
H309        H  0.97946877  0.10029658  0.15922278     0.16600
F310        F  0.07712852  0.08329248  0.18133960    -0.22700
H311        H  0.06429086  0.11324213  0.22909835     0.18400
C312        C  0.99289286  0.14653491  0.26607747     0.26400
C313        C  0.99071191  0.17007116  0.28664863    -0.11300
C314        C  0.01183983  0.19330339  0.28651758    -0.25300
C315        C  0.03578041  0.19208069  0.26622642     0.37300
C316        C  0.03786549  0.16878946  0.24572331    -0.26900
F317        F  0.97213600  0.12445425  0.26663853    -0.19100
H318        H  0.97197296  0.17071239  0.30196102     0.16600
F319        F  0.05673197  0.21400365  0.26564984    -0.22800
H320        H  0.05595979  0.16908308  0.22961913     0.18500
C321        C  0.23068470  0.99335229  0.16797584    -0.26800
C322        C  0.23412222  0.01969896  0.15131072     0.06800
C323        C  0.25775750  0.03923320  0.15837601     0.26400
C324        C  0.27667430  0.03299700  0.18240341    -0.11300
C325        C  0.27260337  0.00704880  0.19951044    -0.25200
C326        C  0.24975121  0.98700273  0.19175908     0.37200
C327        C  0.21082449  0.02809487  0.12932462     0.06800
F328        F  0.26228152  0.06455122  0.14235331    -0.19000
H329        H  0.29419102  0.04866914  0.18802201     0.16600
F330        F  0.24564716  0.96142851  0.20748407    -0.22700
H331        H  0.21243301  0.97819819  0.16338053     0.18400
C332        C  0.19922198  0.00724635  0.10883042     0.26400
C333        C  0.17342827  0.01380667  0.09247441    -0.11300
C334        C  0.15883671  0.04128535  0.09616859    -0.25300
C335        C  0.17202070  0.06298236  0.11489200     0.37300
C336        C  0.19751073  0.05627216  0.13135113    -0.26900
F337        F  0.21227468  0.98019051  0.10534093    -0.19100
H338        H  0.16417699  0.99684601  0.07791413     0.16600
F339        F  0.15954893  0.09028812  0.11866003    -0.22800
H340        H  0.20581212  0.07268249  0.14707748     0.18500
C341        C  0.07510583  0.37169118  0.01806400    -0.26800
C342        C  0.09732608  0.39265892  0.01135651     0.06800
C343        C  0.08940402  0.42279379  0.00797733     0.26400
C344        C  0.05985895  0.43185153  0.01310259    -0.11300
C345        C  0.03788341  0.41094039  0.02148982    -0.25200
C346        C  0.04580198  0.38054528  0.02308336     0.37200
C347        C  0.12860137  0.38237643  0.00907539     0.06800
F348        F  0.11040914  0.44356870  0.00114094    -0.19000
H349        H  0.05443910  0.45531402  0.01153257     0.16600
F350        F  0.02542852  0.35918136  0.03006781    -0.22700
H351        H  0.08062880  0.34825885  0.01995373     0.18400
C352        C  0.14091786  0.36516376  0.03223712     0.26400
C353        C  0.16870692  0.35175205  0.02862250    -0.11300
C354        C  0.18463803  0.35503942  0.00181080    -0.25300
C355        C  0.17327829  0.37375547  0.97934595     0.37300
C356        C  0.14535583  0.38728696  0.98296817    -0.26900
F357        F  0.12573084  0.36083932  0.05818407    -0.19100
H358        H  0.17751478  0.33815245  0.04651378     0.16600
F359        F  0.18848278  0.37771479  0.95336814    -0.22800
H360        H  0.13624818  0.40044779  0.96490873     0.18500
C361        C  0.96938151  0.38939297  0.21521164    -0.26800
C362        C  0.98255185  0.36105111  0.21348343     0.06800
C363        C  0.98702754  0.34812101  0.18519642     0.26400
C364        C  0.97878891  0.36333484  0.15929631    -0.11300
C365        C  0.96564033  0.39176310  0.16076057    -0.25200
C366        C  0.96108023  0.40473754  0.18916888     0.37200
C367        C  0.98989076  0.34396404  0.24095834     0.06800
F368        F  0.99826438  0.32015044  0.18258978    -0.19000
H369        H  0.98237861  0.35245887  0.13794818     0.16600
F370        F  0.94828941  0.43199115  0.19192822    -0.22700
H371        H  0.96544842  0.39962094  0.23682720     0.18400
C372        C  0.01805356  0.33060069  0.24436800     0.26400
C373        C  0.02285490  0.30984863  0.26716085    -0.11300
C374        C  0.99979595  0.30220464  0.28705653    -0.25300
C375        C  0.97241225  0.31727703  0.28514590     0.37300
C376        C  0.96760035  0.33811721  0.26233392    -0.26900
F377        F  0.04048222  0.33657362  0.22479668    -0.19100
H378        H  0.04409366  0.29844386  0.26830148     0.16600
F379        F  0.94946885  0.30988490  0.30356732    -0.22800
H380        H  0.94576018  0.34811535  0.26011661     0.18500
C381        C  0.98616024  0.15056927  0.38201915    -0.26800
C382        C  0.01347219  0.13523320  0.38120516     0.06800
C383        C  0.03797042  0.14845896  0.36658794     0.26400
C384        C  0.03502684  0.17623043  0.35270772    -0.11300
C385        C  0.00771961  0.19144616  0.35328149    -0.25200
C386        C  0.98333516  0.17861229  0.36841285     0.37200
C387        C  0.01602496  0.10473895  0.39389478     0.06800
F388        F  0.06441715  0.13391147  0.36461710    -0.19000
H389        H  0.05397098  0.18571113  0.34097643     0.16600
F390        F  0.95655506  0.19265359  0.36899238    -0.22700
H391        H  0.96698340  0.14066955  0.39299325     0.18400
C392        C  0.03797478  0.09792459  0.41520266     0.26400
C393        C  0.04212263  0.06845564  0.42464601    -0.11300
C394        C  0.02448737  0.04511241  0.41308705    -0.25300
C395        C  0.00180193  0.05224458  0.39248157     0.37300
C396        C  0.99764374  0.08175829  0.38315832    -0.26900
F397        F  0.05550771  0.11978273  0.42676257    -0.19100
H398        H  0.05953319  0.06388392  0.44078610     0.16600
F399        F  0.98426023  0.03066696  0.38045011    -0.22800
H400        H  0.98066222  0.08655104  0.36661806     0.18500
C401        C  0.25685653  0.95438680  0.34510196    -0.26800
C402        C  0.23531519  0.97542298  0.35369750     0.06800
C403        C  0.23574132  0.00392398  0.34067324     0.26400
C404        C  0.25597914  0.01042081  0.31780474    -0.11300
C405        C  0.27621703  0.98873119  0.30786349    -0.25200
C406        C  0.27721910  0.96095330  0.32231669     0.37200
C407        C  0.20960423  0.96613926  0.37221463     0.06800
F408        F  0.21495752  0.02457351  0.34823871    -0.19000
H409        H  0.25498007  0.03189904  0.30684835     0.16600
F410        F  0.29631810  0.93946031  0.31289149    -0.22700
H411        H  0.25676638  0.93232968  0.35489550     0.18400
C412        C  0.19102613  0.94300559  0.36213452     0.26400
C413        C  0.16443311  0.93663872  0.37700725    -0.11300
C414        C  0.15560792  0.95331756  0.40213251    -0.25300
C415        C  0.17492344  0.97564037  0.41306351     0.37300
C416        C  0.20165697  0.98204527  0.39805288    -0.26900
F417        F  0.19761397  0.92783863  0.33668749    -0.19100
H418        H  0.15011910  0.91937618  0.36795976     0.16600
F419        F  0.16782956  0.99159286  0.43785483    -0.22800
H420        H  0.21583854  0.99988184  0.40614732     0.18500
C421        C  0.99947879  0.40354751  0.41418897    -0.26800
C422        C  0.98322513  0.39010167  0.39094687     0.06800
C423        C  0.96023004  0.40617609  0.37722807     0.26400
C424        C  0.95342884  0.43502936  0.38669625    -0.11300
C425        C  0.96918591  0.44861937  0.41029052    -0.25200
C426        C  0.99241255  0.43250101  0.42401976     0.37200
C427        C  0.98971079  0.35929897  0.38079700     0.06800
F428        F  0.94453332  0.39402662  0.35430332    -0.19000
H429        H  0.93545554  0.44666870  0.37558012     0.16600
F430        F  0.00852036  0.44475810  0.44656414    -0.22700
H431        H  0.01738734  0.39146369  0.42492815     0.18400
C432        C  0.01628987  0.35262571  0.36550094     0.26400
C433        C  0.02004624  0.32461859  0.35209640    -0.11300
C434        C  0.99755708  0.30277472  0.35409494    -0.25300
C435        C  0.97172162  0.30892989  0.37078746     0.37300
C436        C  0.96774754  0.33707181  0.38372837    -0.26900
F437        F  0.03784605  0.37368514  0.36215522    -0.19100
H438        H  0.04019003  0.32019011  0.33942486     0.16600
F439        F  0.94959627  0.28832915  0.37306070    -0.22800
H440        H  0.94708701  0.34187500  0.39537118     0.18500
C441        C  0.77600089  0.53710311  0.39289865    -0.26800
C442        C  0.77467171  0.51821502  0.36791027     0.06800
C443        C  0.80049183  0.50293212  0.35890684     0.26400
C444        C  0.82737592  0.50734595  0.37397358    -0.11300
C445        C  0.82914965  0.52702025  0.39838807    -0.25200
C446        C  0.80290158  0.54127775  0.40829306     0.37200
C447        C  0.74737802  0.51657200  0.34939565     0.06800
F448        F  0.80016718  0.48510982  0.33436892    -0.19000
H449        H  0.84709145  0.49597993  0.36587535     0.16600
F450        F  0.80344369  0.56039118  0.43182318    -0.22700
H451        H  0.75631588  0.54913016  0.40004582     0.18400
C452        C  0.73382698  0.48898523  0.34299186     0.26400
C453        C  0.71145659  0.48709789  0.32129613    -0.11300
C454        C  0.70249568  0.51261210  0.30563383    -0.25300
C455        C  0.71489864  0.54040943  0.31310086     0.37300
C456        C  0.73698383  0.54237642  0.33506819    -0.26900
F457        F  0.74324062  0.46373033  0.35671937    -0.19100
H458        H  0.70236482  0.46546460  0.31542638     0.16600
F459        F  0.70703971  0.56526576  0.29774332    -0.22800
H460        H  0.74735627  0.56377572  0.33952004     0.18500
C461        C  0.73113804  0.46637550  0.16228737    -0.26800
C462        C  0.75088528  0.48964814  0.15486302     0.06800
C463        C  0.74593206  0.51823030  0.16680781     0.26400
C464        C  0.72351769  0.52267864  0.18799277    -0.11300
C465        C  0.70521910  0.49894424  0.19705904    -0.25200
C466        C  0.70837757  0.47096656  0.18328818     0.37200
C467        C  0.77848404  0.48330893  0.13773765     0.06800
F468        F  0.76365920  0.54155744  0.15896569    -0.19000
H469        H  0.72114789  0.54440699  0.19828120     0.16600
F470        F  0.69097203  0.44763504  0.19178439    -0.22700
H471        H  0.73451809  0.44422883  0.15328354     0.18400
C472        C  0.80635088  0.49138497  0.14966599     0.26400
C473        C  0.83255074  0.48446816  0.13445790    -0.11300
C474        C  0.83180227  0.46899068  0.10716476    -0.25300
C475        C  0.80387228  0.46084911  0.09510893     0.37300
C476        C  0.77747916  0.46789431  0.11042200    -0.26900
F477        F  0.80839305  0.50490512  0.17674986    -0.19100
H478        H  0.85360382  0.49092928  0.14446891     0.16600
F479        F  0.80199853  0.44550501  0.06901552    -0.22800
H480        H  0.75620834  0.46121185  0.10102054     0.18500
C481        C  0.07667608  0.62885447  0.47265424    -0.26800
C482        C  0.09869043  0.60912930  0.48254022     0.06800
C483        C  0.09076017  0.57943215  0.48892095     0.26400
C484        C  0.06139473  0.56945775  0.48413527    -0.11300
C485        C  0.03949284  0.58902517  0.47312623    -0.25200
C486        C  0.04746744  0.61913257  0.46810568     0.37200
C487        C  0.12978825  0.62006472  0.48548476     0.06800
F488        F  0.11164748  0.55985498  0.49860566    -0.19000
H489        H  0.05602362  0.54625983  0.48826153     0.16600
F490        F  0.02717561  0.63938185  0.45849241    -0.22700
H491        H  0.08222623  0.65197754  0.46823469     0.18400
C492        C  0.14424254  0.63344094  0.46093005     0.26400
C493        C  0.17226802  0.64669576  0.46439614    -0.11300
C494        C  0.18631650  0.64687472  0.49236720    -0.25300
C495        C  0.17239651  0.63272755  0.51673301     0.37300
C496        C  0.14430127  0.61937968  0.51327022    -0.26900
F497        F  0.13101561  0.63402652  0.43366375    -0.19100
H498        H  0.18274432  0.65748906  0.44544104     0.16600
F499        F  0.18519365  0.63341133  0.54419551    -0.22800
H500        H  0.13335616  0.60958247  0.53248930     0.18500
C501        C  0.16444677  0.75388869  0.46005757    -0.26800
C502        C  0.13979849  0.75286721  0.47944516     0.06800
C503        C  0.13888666  0.73115790  0.50208195     0.26400
C504        C  0.16295399  0.71171838  0.50599651    -0.11300
C505        C  0.18801329  0.71335747  0.48710220    -0.25200
C506        C  0.18830293  0.73437524  0.46376338     0.37200
C507        C  0.11637301  0.77588456  0.47660053     0.06800
F508        F  0.11490915  0.72898410  0.52053537    -0.19000
H509        H  0.16242205  0.69605439  0.52438212     0.16600
F510        F  0.21205680  0.73654133  0.44497564    -0.22700
H511        H  0.16566070  0.77053973  0.44255659     0.18400
C512        C  0.10950361  0.79494434  0.50066235     0.26400
C513        C  0.09189096  0.82026330  0.49603713    -0.11300
C514        C  0.08143319  0.82714460  0.46732026    -0.25300
C515        C  0.08653382  0.80691159  0.44380390     0.37300
C516        C  0.10381198  0.78152654  0.44848991    -0.26900
F517        F  0.12205296  0.79067072  0.52790567    -0.19100
H518        H  0.08848314  0.83570995  0.51435470     0.16600
F519        F  0.07602324  0.81244981  0.41590873    -0.22800
H520        H  0.10866753  0.76698683  0.42974887     0.18500
C521        C  0.98390468  0.91265901  0.09332248    -0.26800
C522        C  0.00578150  0.89262618  0.10341477     0.06800
C523        C  0.03595807  0.90159737  0.10229771     0.26400
C524        C  0.04377899  0.93010423  0.09206968    -0.11300
C525        C  0.02175110  0.95051662  0.08335710    -0.25200
C526        C  0.99169885  0.94136367  0.08367952     0.37200
C527        C  0.99701264  0.86307675  0.11620470     0.06800
F528        F  0.05784438  0.88344071  0.11254256    -0.19000
H529        H  0.06705690  0.93668405  0.09219956     0.16600
F530        F  0.96983754  0.96012400  0.07450992    -0.22700
H531        H  0.96061361  0.90617565  0.09315254     0.18400
C532        C  0.97355153  0.86070257  0.13711645     0.26400
C533        C  0.96684101  0.83326594  0.15050386    -0.11300
C534        C  0.98386027  0.80770705  0.14418802    -0.25300
C535        C  0.00655060  0.80981311  0.12243980     0.37300
C536        C  0.01283083  0.83712185  0.10851909    -0.26900
F537        F  0.95799089  0.88515718  0.14579889    -0.19100
H538        H  0.94876585  0.83220072  0.16658574     0.16600
F539        F  0.02358554  0.78579954  0.11552828    -0.22800
H540        H  0.03054127  0.83807136  0.09202808     0.18500
C541        C  0.99418118  0.65798462  0.11408675    -0.26800
C542        C  0.97025773  0.63852712  0.11993168     0.06800
C543        C  0.94603476  0.64875733  0.13711209     0.26400
C544        C  0.94637744  0.67742531  0.14924949    -0.11300
C545        C  0.97104583  0.69628554  0.14494463    -0.25200
C546        C  0.99464048  0.68668839  0.12654217     0.37200
C547        C  0.97114287  0.60703050  0.10987830     0.06800
F548        F  0.92219420  0.63079793  0.14252650    -0.19000
H549        H  0.92771321  0.68464177  0.16281985     0.16600
F550        F  0.01880497  0.70442961  0.12197873    -0.22700
H551        H  0.01304221  0.65049584  0.10095101     0.18400
C552        C  0.97391890  0.59939738  0.07950998     0.26400
C553        C  0.97161155  0.56947687  0.07051061    -0.11300
C554        C  0.96658702  0.54675927  0.09167381    -0.25300
C555        C  0.96567664  0.55450025  0.12225011     0.37300
C556        C  0.96785782  0.58426041  0.13109155    -0.26900
F557        F  0.97722192  0.62095540  0.05846780    -0.19100
H558        H  0.97246443  0.56426202  0.04688941     0.16600
F559        F  0.96203954  0.53342924  0.14374900    -0.22800
H560        H  0.96638061  0.58965392  0.15466238     0.18500
C561        C  0.99210314  0.65571835  0.23655456    -0.26800
C562        C  0.96597420  0.65035801  0.25321136     0.06800
C563        C  0.94075795  0.66821758  0.24792491     0.26400
C564        C  0.94216792  0.69178960  0.22748006    -0.11300
C565        C  0.96849203  0.69767233  0.21150965    -0.25200
C566        C  0.99330376  0.67902122  0.21564017     0.37200
C567        C  0.96604376  0.62904903  0.27869673     0.06800
F568        F  0.91538544  0.66419748  0.26406290    -0.19000
H569        H  0.92295048  0.70610822  0.22472682     0.16600
F570        F  0.01913947  0.68439714  0.20067173    -0.22700
H571        H  0.01183345  0.64239868  0.24043267     0.18400
C572        C  0.94418611  0.60661304  0.28146668     0.26400
C573        C  0.94133343  0.59043263  0.30819392    -0.11300
C574        C  0.95996794  0.59661345  0.33271247    -0.25300
C575        C  0.98314507  0.61761184  0.32906228     0.37300
C576        C  0.98616922  0.63348298  0.30228006    -0.26900
F577        F  0.92498476  0.60108388  0.25869392    -0.19100
H578        H  0.92346876  0.57422697  0.31026090     0.16600
F579        F  0.00238054  0.62349105  0.35172026    -0.22800
H580        H  0.00329289  0.65051962  0.30057844     0.18500
C581        C  0.96602206  0.83654965  0.25423686    -0.26800
C582        C  0.99446404  0.84968861  0.25539527     0.06800
C583        C  0.01546866  0.84263492  0.23299798     0.26400
C584        C  0.00884030  0.82109986  0.21137418    -0.11300
C585        C  0.98114969  0.80646481  0.21162030    -0.25200
C586        C  0.95937868  0.81513003  0.23253902     0.37200
C587        C  0.00344386  0.86693653  0.28224775     0.06800
F588        F  0.04290772  0.85553448  0.23291649    -0.19000
H589        H  0.02587692  0.81468922  0.19543873     0.16600
F590        F  0.93221012  0.80168367  0.23289989    -0.22700
H591        H  0.94957227  0.84139662  0.27130205     0.18400
C592        C  0.98550063  0.88971582  0.29429063     0.26400
C593        C  0.99343114  0.90356835  0.32127898    -0.11300
C594        C  0.01925988  0.89482884  0.33677496    -0.25300
C595        C  0.03721574  0.87211240  0.32437674     0.37300
C596        C  0.02930515  0.85849053  0.29756336    -0.26900
F597        F  0.96033916  0.89852451  0.28001474    -0.19100
H598        H  0.97914728  0.92087831  0.33021241     0.16600
F599        F  0.06211741  0.86223055  0.33843569    -0.22800
H600        H  0.04303483  0.84043500  0.28923864     0.18500
C601        C  0.10115630  0.03212206  0.83597401    -0.26800
C602        C  0.11041810  0.01434119  0.86014127     0.06800
C603        C  0.13235266  0.99247035  0.85502227     0.26400
C604        C  0.14549159  0.98956561  0.82681033    -0.11300
C605        C  0.13805646  0.00912774  0.80346310    -0.25200
C606        C  0.11512544  0.02996193  0.80808853     0.37200
C607        C  0.09875262  0.02022404  0.89081782     0.06800
F608        F  0.14249377  0.97505899  0.87760792    -0.19000
H609        H  0.16244305  0.97274324  0.82354814     0.16600
F610        F  0.10729809  0.04936298  0.78620024    -0.22700
H611        H  0.08370758  0.04848648  0.83892089     0.18400
C612        C  0.09594991  0.04971175  0.90135297     0.26400
C613        C  0.08608881  0.05526306  0.93042251    -0.11300
C614        C  0.07969522  0.03170926  0.95005748    -0.25300
C615        C  0.08256212  0.00221496  0.93980337     0.37300
C616        C  0.09152208  0.99659601  0.91029389    -0.26900
F617        F  0.10403224  0.07328738  0.88408704    -0.19100
H618        H  0.08447672  0.07817012  0.93797125     0.16600
F619        F  0.07626951  0.97888077  0.95809884    -0.22800
H620        H  0.09287880  0.97370495  0.90272155     0.18500
C621        C  0.09186412  0.00490122  0.58497805    -0.26800
C622        C  0.10049178  0.98302907  0.60570838     0.06800
C623        C  0.09800590  0.95272223  0.59758595     0.26400
C624        C  0.08680645  0.94469165  0.56957873    -0.11300
C625        C  0.07881722  0.96660405  0.54875778    -0.25200
C626        C  0.08157169  0.99683894  0.55661498     0.37200
C627        C  0.11227199  0.99175820  0.63554053     0.06800
F628        F  0.10747692  0.93082291  0.61621135    -0.19000
H629        H  0.08541372  0.92127734  0.56372777     0.16600
F630        F  0.07385836  0.01859554  0.53703502    -0.22700
H631        H  0.09297052  0.02832763  0.59074801     0.18400
C632        C  0.13339364  0.01488776  0.63865939     0.26400
C633        C  0.14570813  0.02126328  0.66664216    -0.11300
C634        C  0.13843882  0.00379084  0.69172314    -0.25300
C635        C  0.11630284  0.98166023  0.68886568     0.37300
C636        C  0.10309567  0.97612119  0.66118677    -0.26900
F637        F  0.14350805  0.03020571  0.61449391    -0.19100
H638        H  0.16211087  0.03892598  0.66839819     0.16600
F639        F  0.10862141  0.96411100  0.71238638    -0.22800
H640        H  0.08623142  0.95888135  0.65966722     0.18500
C641        C  0.90524305  0.11575080  0.00081149    -0.26800
C642        C  0.88195224  0.10468318  0.01876034     0.06800
C643        C  0.88849700  0.08289343  0.04033828     0.26400
C644        C  0.91793713  0.07370717  0.04493326    -0.11300
C645        C  0.94159121  0.08583536  0.02804290    -0.25200
C646        C  0.93475666  0.10650579  0.00530454     0.37200
C647        C  0.85136919  0.11722400  0.01597330     0.06800
F648        F  0.86641481  0.07056672  0.05712195    -0.19000
H649        H  0.92223235  0.05736119  0.06223538     0.16600
F650        F  0.95657907  0.11864717  0.98806337    -0.22700
H651        H  0.90070498  0.13248248  0.98393799     0.18400
C652        C  0.83659932  0.12908261  0.04112981     0.26400
C653        C  0.80884543  0.14293271  0.03804125    -0.11300
C654        C  0.79522859  0.14511421  0.00994955    -0.25300
C655        C  0.80947585  0.13267623  0.98490175     0.37300
C656        C  0.83743068  0.11902960  0.98789133    -0.26900
F657        F  0.84963666  0.12857111  0.06848323    -0.19100
H658        H  0.79820196  0.15260429  0.05752651     0.16600
F659        F  0.79678227  0.13461811  0.95745881    -0.22800
H660        H  0.84837251  0.11009977  0.96822861     0.18500
C661        C  0.82239309  0.24622623  0.04317242    -0.26800
C662        C  0.83729837  0.25729735  0.01783295     0.06800
C663        C  0.83222422  0.24379659  0.98988156     0.26400
C664        C  0.81111756  0.22092114  0.98717189    -0.11300
C665        C  0.79493820  0.21131582  0.01224121    -0.25200
C666        C  0.80119035  0.22355588  0.04039414     0.37200
C667        C  0.85586722  0.28450732  0.02063626     0.06800
F668        F  0.84684087  0.25348225  0.96509900    -0.19000
H669        H  0.80613288  0.21188785  0.96526499     0.16600
F670        F  0.78523801  0.21500779  0.06477750    -0.22700
H671        H  0.82585320  0.25640709  0.06486662     0.18400
C672        C  0.84961706  0.30993070  0.00334722     0.26400
C673        C  0.86479477  0.33666088  0.00863683    -0.11300
C674        C  0.88652738  0.33854481  0.03112380    -0.25300
C675        C  0.89329323  0.31289982  0.04793795     0.37300
C676        C  0.87794719  0.28621060  0.04277201    -0.26900
F677        F  0.82764381  0.30945735  0.98251477    -0.19100
H678        H  0.85911588  0.35610038  0.99550576     0.16600
F679        F  0.91350695  0.31398374  0.07046929    -0.22800
H680        H  0.88280784  0.26698196  0.05653722     0.18500
C681        C  0.38143052  0.99622873  0.08733244    -0.26800
C682        C  0.37297963  0.01913952  0.10703739     0.06800
C683        C  0.37521218  0.04895726  0.09740531     0.26400
C684        C  0.38653302  0.05559961  0.06906552    -0.11300
C685        C  0.39504374  0.03271295  0.04945994    -0.25200
C686        C  0.39202106  0.00287352  0.05865737     0.37200
C687        C  0.36208935  0.01198484  0.13758614     0.06800
F688        F  0.36572850  0.07167220  0.11507431    -0.19000
H689        H  0.38802060  0.07872185  0.06214805     0.16600
F690        F  0.40008497  0.98018085  0.04027256    -0.22700
H691        H  0.38022238  0.97311847  0.09428878     0.18400
C692        C  0.34045354  0.98967741  0.14232119     0.26400
C693        C  0.32948448  0.98426110  0.17106339    -0.11300
C694        C  0.33881237  0.00180073  0.19539196    -0.25300
C695        C  0.36129734  0.02323097  0.19089582     0.37300
C696        C  0.37297375  0.02801739  0.16230293    -0.26900
F697        F  0.32869153  0.97422826  0.11903309    -0.19100
H698        H  0.31254000  0.96725809  0.17411438     0.16600
F699        F  0.37091085  0.04059961  0.21380131    -0.22800
H700        H  0.39014600  0.04480503  0.15935741     0.18500
C701        C  0.28444080  0.00596034  0.88783580    -0.26800
C702        C  0.27375371  0.02662690  0.86684073     0.06800
C703        C  0.28950498  0.05339611  0.86242464     0.26400
C704        C  0.31569486  0.05899874  0.87814477    -0.11300
C705        C  0.32710834  0.03800506  0.89845852    -0.25200
C706        C  0.31090346  0.01150122  0.90354373     0.37200
C707        C  0.24785755  0.01946770  0.84757120     0.13200
F708        F  0.28054720  0.07349899  0.84162301    -0.19000
H709        H  0.32750408  0.07962731  0.87365034     0.16600
F710        F  0.32090931  0.99059176  0.92298586    -0.22700
H711        H  0.27255097  0.98524454  0.89165215     0.18400
C712        C  0.24742039  0.99295360  0.83077415     0.26400
C713        C  0.22619710  0.98895778  0.80833743    -0.11300
C714        C  0.20513348  0.01123971  0.80229307    -0.25300
C715        C  0.20433436  0.03690133  0.82023850     0.37300
C716        C  0.22542506  0.04082517  0.84287476    -0.26900
F717        F  0.26893183  0.97200912  0.83431492    -0.19100
H718        H  0.22708438  0.96909577  0.79460845     0.16600
F719        F  0.18458147  0.05904521  0.81449968    -0.22800
H720        H  0.22520892  0.06126276  0.85574426     0.18500
C721        C  0.38159617  0.21177157  0.99425237    -0.26800
C722        C  0.36049596  0.22162038  0.97322890     0.06800
C723        C  0.35621797  0.20497372  0.94696620     0.26400
C724        C  0.37187483  0.17866578  0.94239947    -0.11300
C725        C  0.39183572  0.16781919  0.96401634    -0.25200
C726        C  0.39704778  0.18498195  0.98986410     0.37200
C727        C  0.34062702  0.24718953  0.97981088     0.06800
F728        F  0.33537588  0.21292942  0.92650361    -0.19000
H729        H  0.36727718  0.16614000  0.92221283     0.16600
F730        F  0.41627818  0.17559524  0.01125317    -0.22700
H731        H  0.38548665  0.22442164  0.01450279     0.18400
C732        C  0.32493583  0.24844825  0.00705412     0.26400
C733        C  0.30209720  0.26915129  0.01102187    -0.11300
C734        C  0.29415444  0.28859536  0.98783029    -0.25300
C735        C  0.31054690  0.28822478  0.96102991     0.37300
C736        C  0.33399592  0.26808824  0.95735489    -0.26900
F737        F  0.32991392  0.22812298  0.02894204    -0.19100
H738        H  0.28952314  0.26901365  0.03168682     0.16600
F739        F  0.30242921  0.30553839  0.93756937    -0.22800
H740        H  0.34586240  0.26766648  0.93627909     0.18500
C741        C  0.64797254  0.11746986  0.97265700    -0.26800
C742        C  0.62744034  0.11982155  0.99640188     0.06800
C743        C  0.63635900  0.13452920  0.02276858     0.26400
C744        C  0.66430073  0.14840234  0.02434102    -0.11300
C745        C  0.68416834  0.14700276  0.00012195    -0.25200
C746        C  0.67623165  0.13062876  0.97461837     0.37200
C747        C  0.59654445  0.10810250  0.99275366     0.06800
F748        F  0.61819629  0.13533167  0.04707781    -0.19000
H749        H  0.67046297  0.16036948  0.04443629     0.16600
F750        F  0.69526912  0.12863512  0.95106468    -0.22700
H751        H  0.64179786  0.10624477  0.95215759     0.18400
C752        C  0.57161684  0.12563961  0.00039941     0.26400
C753        C  0.54270583  0.11535631  0.99468764    -0.11300
C754        C  0.53796874  0.08787257  0.98040983    -0.25300
C755        C  0.56281224  0.07013422  0.97308718     0.37300
C756        C  0.59172392  0.08009977  0.97944883    -0.26900
F757        F  0.57512692  0.15357129  0.01156557    -0.19100
H758        H  0.52400788  0.12969001  0.00003373     0.16600
F759        F  0.55921440  0.04327864  0.95953158    -0.22800
H760        H  0.61047513  0.06609342  0.97344790     0.18500
C761        C  0.51408953  0.16845086  0.76097981    -0.26800
C762        C  0.48820576  0.15072947  0.76030184     0.06800
C763        C  0.46805325  0.15432517  0.73643946     0.26400
C764        C  0.47242690  0.17688697  0.71535643    -0.11300
C765        C  0.49733470  0.19580651  0.71710026    -0.25200
C766        C  0.51872921  0.19070274  0.73951209     0.37200
C767        C  0.48000142  0.13207553  0.78656152     0.06800
F768        F  0.44331693  0.13691925  0.73433517    -0.19000
H769        H  0.45546906  0.18053538  0.69854161     0.16600
F770        F  0.54342058  0.20819118  0.74144046    -0.22700
H771        H  0.52986283  0.16633328  0.77917534     0.18400
C772        C  0.50044480  0.11287299  0.80066702     0.26400
C773        C  0.49235642  0.09766618  0.82694802    -0.11300
C774        C  0.46384760  0.10143822  0.83961864    -0.25300
C775        C  0.44332565  0.12021061  0.82489399     0.37300
C776        C  0.45148362  0.13534195  0.79900067    -0.26900
F777        F  0.52816670  0.10886499  0.78912161    -0.19100
H778        H  0.50861809  0.08340580  0.83769223     0.16600
F779        F  0.41536036  0.12469886  0.83571203    -0.22800
H780        H  0.43551561  0.15052934  0.78910268     0.18500
C781        C  0.37995011  0.96476039  0.33720772    -0.26800
C782        C  0.37247963  0.98225182  0.36224275     0.06800
C783        C  0.35077808  0.00463960  0.35900405     0.26400
C784        C  0.33668516  0.00901422  0.33155411    -0.11300
C785        C  0.34298326  0.99053417  0.30697493    -0.25200
C786        C  0.36525270  0.96867885  0.30987625     0.37200
C787        C  0.38628464  0.97641732  0.39192106     0.06800
F788        F  0.34205263  0.02137414  0.38274101    -0.19000
H789        H  0.32005366  0.02638708  0.32974686     0.16600
F790        F  0.37191097  0.95026931  0.28672826    -0.22700
H791        H  0.39687635  0.94766689  0.33894465     0.18400
C792        C  0.38796305  0.94724139  0.40341649     0.26400
C793        C  0.39881506  0.94228701  0.43227596    -0.11300
C794        C  0.40765871  0.96624823  0.45050790    -0.25300
C795        C  0.40679183  0.99530265  0.43880326     0.37300
C796        C  0.39647588  0.00023403  0.40970484    -0.26900
F797        F  0.37764620  0.92363873  0.38743958    -0.19100
H798        H  0.39909949  0.91968400  0.44087131     0.16600
F799        F  0.41606731  0.01889134  0.45540385    -0.22800
H800        H  0.39609522  0.02283720  0.40115775     0.18500
C801        C  0.32812119  0.75342706  0.48970682    -0.26800
C802        C  0.33882098  0.75742112  0.51889186     0.06800
C803        C  0.32938986  0.73781071  0.54161135     0.26400
C804        C  0.30802833  0.71589593  0.53555414    -0.11300
C805        C  0.29574249  0.71346285  0.50687697    -0.25200
C806        C  0.30660610  0.73168256  0.48373220     0.37200
C807        C  0.35617180  0.78448932  0.52625296     0.06800
F808        F  0.33974931  0.74086219  0.56994850    -0.19000
H809        H  0.29977960  0.70203246  0.55357518     0.16600
F810        F  0.29518702  0.72943906  0.45573798    -0.22700
H811        H  0.33492556  0.76841187  0.47199444     0.18400
C812        C  0.38190681  0.79251362  0.51012267     0.26400
C813        C  0.39656246  0.81941751  0.51630498    -0.11300
C814        C  0.38564615  0.83880063  0.53849312    -0.25300
C815        C  0.35968088  0.83064603  0.55443790     0.37300
C816        C  0.34528460  0.80378124  0.54834773    -0.26900
F817        F  0.39290540  0.77430300  0.48853604    -0.19100
H818        H  0.41640735  0.82509530  0.50365999     0.16600
F819        F  0.34755300  0.84887651  0.57541684    -0.22800
H820        H  0.32498806  0.79838968  0.56040938     0.18500
C821        C  0.29064464  0.01076562  0.61130905    -0.26800
C822        C  0.27550913  0.98926991  0.62866070     0.06800
C823        C  0.28708880  0.96017162  0.62992786     0.26400
C824        C  0.31337456  0.95307578  0.61500737    -0.11300
C825        C  0.32934785  0.97473581  0.59882036    -0.25200
C826        C  0.31744514  0.00368158  0.59661939     0.37200
C827        C  0.24943440  0.99734988  0.64767914     0.06800
F828        F  0.27414160  0.93883654  0.64718123    -0.19000
H829        H  0.32174753  0.93053376  0.61703355     0.16600
F830        F  0.33223735  0.02542093  0.58150907    -0.22700
H831        H  0.28209201  0.03326025  0.60968473     0.18400
C832        C  0.25041091  0.02264634  0.66631239     0.26400
C833        C  0.22875398  0.02669367  0.68844286    -0.11300
C834        C  0.20615593  0.00537441  0.69296017    -0.25300
C835        C  0.20427903  0.98088874  0.67345529     0.37300
C836        C  0.22521754  0.97746981  0.65052370    -0.26900
F837        F  0.27356609  0.04216936  0.66493912    -0.19100
H838        H  0.23059889  0.04568899  0.70328749     0.16600
F839        F  0.18354483  0.95920280  0.67778428    -0.22800
H840        H  0.22352531  0.95816466  0.63609529     0.18500
C841        C  0.48274577  0.08152532  0.63073705    -0.26800
C842        C  0.47896161  0.10634766  0.61201874     0.06800
C843        C  0.46926431  0.10179207  0.58245414     0.26400
C844        C  0.46272250  0.07299703  0.57222020    -0.11300
C845        C  0.46626281  0.04820575  0.59104824    -0.25200
C846        C  0.47648440  0.05273421  0.62044945     0.37200
C847        C  0.48442561  0.13680711  0.62389895     0.06800
F848        F  0.46652249  0.12512697  0.56335533    -0.19000
H849        H  0.45504901  0.07003302  0.54943631     0.16600
F850        F  0.47912443  0.02949640  0.63970136    -0.22700
H851        H  0.48988675  0.08453990  0.65369486     0.18400
C852        C  0.46238052  0.15900698  0.62189175     0.26400
C853        C  0.46708360  0.18707217  0.63474418    -0.11300
C854        C  0.49357202  0.19333202  0.65021693    -0.25300
C855        C  0.51587207  0.17142337  0.65174463     0.37300
C856        C  0.51125993  0.14338743  0.63875247    -0.26900
F857        F  0.43568008  0.15308210  0.60888651    -0.19100
H858        H  0.44953935  0.20356134  0.63371769     0.16600
F859        F  0.54193463  0.17707433  0.66608849    -0.22800
H860        H  0.52854246  0.12668171  0.64048362     0.18500
C861        C  0.32755478  0.61388421  0.53914660    -0.26800
C862        C  0.35208200  0.61932642  0.52020364     0.06800
C863        C  0.34824591  0.63825545  0.49540152     0.26400
C864        C  0.32068339  0.65160812  0.49005259    -0.11300
C865        C  0.29655316  0.64707242  0.50960358    -0.25200
C866        C  0.30006703  0.62772584  0.53403619     0.37200
C867        C  0.38178004  0.60612916  0.52676026     0.06800
F868        F  0.37145945  0.64493463  0.47702064    -0.19000
H869        H  0.31834716  0.66622222  0.47086824     0.16600
F870        F  0.27728743  0.62310098  0.55354589    -0.22700
H871        H  0.32976165  0.59907398  0.55817861     0.18400
C872        C  0.39390542  0.60733872  0.55576847     0.26400
C873        C  0.42263148  0.59657854  0.56121001    -0.11300
C874        C  0.44008923  0.58512158  0.53781237    -0.25300
C875        C  0.42785872  0.58328554  0.50898408     0.37300
C876        C  0.39885014  0.59336014  0.50365765    -0.26900
F877        F  0.37867734  0.62030543  0.57856641    -0.19100
H878        H  0.43176268  0.59840291  0.58355985     0.16600
F879        F  0.44385650  0.57155218  0.48603984    -0.22800
H880        H  0.38980921  0.59147864  0.48128527     0.18500
C881        C  0.60654841  0.50086413  0.41554906    -0.26800
C882        C  0.59358682  0.51647758  0.39170713     0.06800
C883        C  0.56940626  0.53551994  0.39759677     0.26400
C884        C  0.55981851  0.54031289  0.42701158    -0.11300
C885        C  0.57392084  0.52603605  0.45117560    -0.25200
C886        C  0.59688009  0.50546760  0.44496693     0.37200
C887        C  0.60675077  0.51414726  0.36127186     0.06800
F888        F  0.55523710  0.54972342  0.37492650    -0.19000
H889        H  0.54168613  0.55577195  0.43088809     0.16600
F890        F  0.61098798  0.49072131  0.46730920    -0.22700
H891        H  0.62510439  0.48594727  0.41151323     0.18400
C892        C  0.61583676  0.53993923  0.34569582     0.26400
C893        C  0.63052100  0.53751517  0.31817698    -0.11300
C894        C  0.63629693  0.50945394  0.30571154    -0.25300
C895        C  0.62696483  0.48368588  0.32091091     0.37300
C896        C  0.61239858  0.48604474  0.34854095    -0.26900
F897        F  0.61184025  0.56742208  0.35775615    -0.19100
H898        H  0.63797919  0.55755135  0.30681170     0.16600
F899        F  0.63273140  0.45629414  0.30939116    -0.22800
H900        H  0.60579716  0.46589723  0.36021657     0.18500
C901        C  0.52609525  0.34173161  0.61930510    -0.26800
C902        C  0.50095894  0.36046045  0.61842899     0.06800
C903        C  0.47376510  0.34978415  0.63029556     0.26400
C904        C  0.47257462  0.32213338  0.64484720    -0.11300
C905        C  0.49812645  0.30429161  0.64684392    -0.25200
C906        C  0.52461818  0.31377215  0.63303731     0.37200
C907        C  0.50413244  0.39146300  0.60671281     0.06800
F908        F  0.44836595  0.36598879  0.62780715    -0.19000
H909        H  0.45182661  0.31476257  0.65490394     0.16600
F910        F  0.54954192  0.29670730  0.63444621    -0.22700
H911        H  0.54729319  0.34921232  0.61036621     0.18400
C912        C  0.49300585  0.41607025  0.62283721     0.26400
C913        C  0.49919000  0.44521678  0.61342710    -0.11300
C914        C  0.51710392  0.45063278  0.58816364    -0.25300
C915        C  0.52750724  0.42601967  0.57152939     0.37300
C916        C  0.52092713  0.39688519  0.58068543    -0.26900
F917        F  0.47784269  0.41213219  0.64883543    -0.19100
H918        H  0.49100832  0.46362407  0.62681744     0.16600
F919        F  0.54441900  0.42996357  0.54661910    -0.22800
H920        H  0.52958496  0.37841225  0.56768332     0.18500
C921        C  0.60386442  0.29614616  0.99752266    -0.26800
C922        C  0.62531559  0.28492689  0.97749641     0.06800
C923        C  0.62955360  0.29955169  0.94999130     0.26400
C924        C  0.61317506  0.32504877  0.94306754    -0.11300
C925        C  0.59240088  0.33697691  0.96343889    -0.25200
C926        C  0.58758140  0.32191916  0.99069474     0.37200
C927        C  0.64440391  0.25911130  0.98582265     0.06800
F928        F  0.65071103  0.29020455  0.93037020    -0.19000
H929        H  0.61762094  0.33604746  0.92195342     0.16600
F930        F  0.56779818  0.33241417  0.01112962    -0.22700
H931        H  0.59998367  0.28512498  0.01872921     0.18400
C932        C  0.65962632  0.25866682  0.01331124     0.26400
C933        C  0.68035811  0.23622816  0.01938940    -0.11300
C934        C  0.68664068  0.21400581  0.99814746    -0.25300
C935        C  0.67063958  0.21375236  0.97116013     0.37300
C936        C  0.64950229  0.23590951  0.96526676    -0.26900
F937        F  0.65619042  0.28111000  0.03338869    -0.19100
H938        H  0.69280718  0.23711447  0.04007796     0.16600
F939        F  0.67710028  0.19359384  0.94949534    -0.22800
H940        H  0.63796081  0.23563115  0.94404615     0.18500
C941        C  0.54245568  0.37425432  0.79065453    -0.26800
C942        C  0.51379544  0.37534789  0.77825955     0.06800
C943        C  0.49209945  0.39346725  0.79201173     0.26400
C944        C  0.49876851  0.40886712  0.81854626    -0.11300
C945        C  0.52711110  0.40635621  0.83181463    -0.25200
C946        C  0.54918226  0.38957345  0.81687915     0.37200
C947        C  0.50640952  0.35462527  0.75337796     0.06800
F948        F  0.46435073  0.39575025  0.78015567    -0.19000
H949        H  0.48140198  0.42183426  0.82927657     0.16600
F950        F  0.57715702  0.38685161  0.82810425    -0.22700
H951        H  0.55948411  0.36018309  0.78081293     0.18400
C952        C  0.52602969  0.35100858  0.72899107     0.26400
C953        C  0.52284483  0.32671210  0.70960708    -0.11300
C954        C  0.49970176  0.30595644  0.71373407    -0.25300
C955        C  0.47888645  0.31076051  0.73684234     0.37300
C956        C  0.48228635  0.33481321  0.75645716    -0.26900
F957        F  0.54914712  0.37018562  0.72478887    -0.19100
H958        H  0.53948457  0.32327096  0.69236164     0.16600
F959        F  0.45608828  0.29126944  0.74135160    -0.22800
H960        H  0.46708875  0.33681429  0.77523466     0.18500
C961        C  0.58911949  0.50543691  0.08874041    -0.26800
C962        C  0.59834454  0.48214216  0.10764851     0.06800
C963        C  0.59617488  0.45258103  0.09712203     0.26400
C964        C  0.58510663  0.44666371  0.06850697    -0.11300
C965        C  0.57678177  0.46999635  0.04937267    -0.25200
C966        C  0.57887570  0.49952631  0.05975660     0.37200
C967        C  0.61099721  0.48867743  0.13780774     0.06800
F968        F  0.60607894  0.42942159  0.11388460    -0.19000
H969        H  0.58423341  0.42374847  0.06080121     0.16600
F970        F  0.57078576  0.52265017  0.04199319    -0.22700
H971        H  0.58994586  0.52836167  0.09636131     0.18400
C972        C  0.63217169  0.51159861  0.14187271     0.26400
C973        C  0.64515914  0.51630924  0.16987848    -0.11300
C974        C  0.63819591  0.49776676  0.19426004    -0.25300
C975        C  0.61633669  0.47551921  0.19053134     0.37300
C976        C  0.60274552  0.47126657  0.16268535    -0.26900
F977        F  0.64141104  0.52864869  0.11854127    -0.19100
H978        H  0.66129549  0.53414408  0.17233667     0.16600
F979        F  0.60890953  0.45711419  0.21346617    -0.22800
H980        H  0.58600791  0.45395094  0.16047600     0.18500
C981        C  0.34309536  0.36839671  0.00622308    -0.26800
C982        C  0.35186459  0.38044319  0.97854993     0.06800
C983        C  0.33142489  0.38001875  0.95463395     0.26400
C984        C  0.30293768  0.36766830  0.95848393    -0.11300
C985        C  0.29478475  0.35471074  0.98583026    -0.25200
C986        C  0.31488786  0.35553751  0.00983078     0.37200
C987        C  0.38278485  0.39192616  0.97460988     0.06800
F988        F  0.33952752  0.38992138  0.92711233    -0.19000
H989        H  0.28777362  0.36680460  0.93969278     0.16600
F990        F  0.30736964  0.34335719  0.03659476    -0.22700
H991        H  0.35831706  0.36858057  0.02498160     0.18400
C992        C  0.38843583  0.41982823  0.96134323     0.26400
C993        C  0.41780472  0.42971548  0.95709083    -0.11300
C994        C  0.44210829  0.41227533  0.96640441    -0.25300
C995        C  0.43638278  0.38468435  0.98032666     0.37300
C996        C  0.40705421  0.37468398  0.98426109    -0.26900
F997        F  0.36559529  0.43776886  0.95296523    -0.19100
H998        H  0.42155269  0.45115810  0.94651026     0.16600
F999        F  0.45909971  0.36673071  0.98900645    -0.22800
H1000       H  0.40329432  0.35300907  0.99436331     0.18500
C1001       C  0.83656189  0.86664740  0.45203628    -0.26800
C1002       C  0.84989772  0.87595374  0.47890455     0.06800
C1003       C  0.83446854  0.87160457  0.50598902     0.26400
C1004       C  0.80644551  0.85776567  0.50611815    -0.11300
C1005       C  0.79356775  0.84789586  0.47933982    -0.25200
C1006       C  0.80867573  0.85258408  0.45222598     0.37200
C1007       C  0.88008244  0.88959345  0.47827116     0.06800
F1008       F  0.84634183  0.88100510  0.53224366    -0.19000
H1009       H  0.79495601  0.85429646  0.52713849     0.16600
F1010       F  0.79648091  0.84344280  0.42601237    -0.22700
H1011       H  0.84806024  0.86974832  0.43096112     0.18400
C1012       C  0.90355848  0.87758219  0.49520151     0.26400
C1013       C  0.93259117  0.88873952  0.49200270    -0.11300
C1014       C  0.93885656  0.91191440  0.47172339    -0.25300
C1015       C  0.91495494  0.92487209  0.45591000     0.37300
C1016       C  0.88598979  0.91365006  0.45910767    -0.26900
F1017       F  0.89880329  0.85383614  0.51342267    -0.19100
H1018       H  0.95042267  0.87819824  0.50440456     0.16600
F1019       F  0.91955216  0.94788015  0.43671683    -0.22800
H1020       H  0.86812416  0.92342396  0.44610427     0.18500
C1021       C  0.63383574  0.86708043  0.47569687    -0.26800
C1022       C  0.62888294  0.88024654  0.50386809     0.06800
C1023       C  0.65211068  0.87970972  0.52507773     0.26400
C1024       C  0.67914352  0.86559433  0.51840772    -0.11300
C1025       C  0.68321836  0.85104842  0.49093265    -0.25200
C1026       C  0.66062034  0.85243394  0.46933808     0.37200
C1027       C  0.59861237  0.89166881  0.51166425     0.06800
F1028       F  0.64809958  0.89092948  0.55296837    -0.19000
H1029       H  0.69634233  0.86458813  0.53530556     0.16600
F1030       F  0.66428397  0.83914675  0.44231125    -0.22700
H1031       H  0.61659330  0.86746393  0.45882274     0.18400
C1032       C  0.59434088  0.91875991  0.52708865     0.26400
C1033       C  0.56557069  0.92778792  0.53548772    -0.11300
C1034       C  0.54044313  0.91047547  0.52804850    -0.25300
C1035       C  0.54472772  0.88384344  0.51191536     0.37300
C1036       C  0.57341673  0.87457915  0.50408953    -0.26900
F1037       F  0.61778743  0.93686985  0.53346453    -0.19100
H1038       H  0.56291400  0.94860133  0.54754330     0.16600
F1039       F  0.52130254  0.86610137  0.50449229    -0.22800
H1040       H  0.57595866  0.85346870  0.49253034     0.18500
C1041       C  0.65157854  0.74022724  0.47240136    -0.26800
C1042       C  0.63518439  0.74250446  0.49912487     0.06800
C1043       C  0.64058786  0.76708677  0.51802989     0.26400
C1044       C  0.66371695  0.78714347  0.51168705    -0.11300
C1045       C  0.68124637  0.78387001  0.48581090    -0.25200
C1046       C  0.67412563  0.76081025  0.46562973     0.37200
C1047       C  0.61601003  0.71714090  0.50913112     0.06800
F1048       F  0.62434766  0.77102272  0.54337555    -0.19000
H1049       H  0.66887597  0.80424150  0.52790368     0.16600
F1050       F  0.69002354  0.75726385  0.44000891    -0.22700
H1051       H  0.64821298  0.72150701  0.45752940     0.18400
C1052       C  0.59672681  0.70189112  0.48944832     0.26400
C1053       C  0.58229360  0.67554999  0.49857283    -0.11300
C1054       C  0.58679953  0.66394419  0.52743912    -0.25300
C1055       C  0.60481954  0.68021670  0.54750556     0.37300
C1056       C  0.61933797  0.70617106  0.53830999    -0.26900
F1057       F  0.59215026  0.71218402  0.46130458    -0.19100
H1058       H  0.56833623  0.66376143  0.48272113     0.16600
F1059       F  0.60921155  0.67074989  0.57598039    -0.22800
H1060       H  0.63434949  0.71699763  0.55386811     0.18500
C1061       C  0.81930333  0.74590002  0.44459106    -0.26800
C1062       C  0.83617563  0.73905132  0.47009514     0.06800
C1063       C  0.83124692  0.75524753  0.49659214     0.26400
C1064       C  0.80866871  0.77671926  0.49787836    -0.11300
C1065       C  0.79068246  0.78220362  0.47286005    -0.25200
C1066       C  0.79657044  0.76714512  0.44598109     0.37200
C1067       C  0.85651155  0.71304224  0.46945746     0.06800
F1068       F  0.84765985  0.74964214  0.52141493    -0.19000
H1069       H  0.80428253  0.78811345  0.51880368     0.16600
F1070       F  0.77952128  0.77217822  0.42146770    -0.22700
H1071       H  0.82270448  0.73362899  0.42398432     0.18400
C1072       C  0.85179366  0.68894109  0.48901262     0.26400
C1073       C  0.86801723  0.66260472  0.48556144    -0.11300
C1074       C  0.88942159  0.65978768  0.46273125    -0.25300
C1075       C  0.89519674  0.68446084  0.44407608     0.37300
C1076       C  0.87862744  0.71072158  0.44729380    -0.26900
F1077       F  0.83011574  0.69010029  0.51022383    -0.19100
H1078       H  0.86316327  0.64402051  0.50024935     0.16600
F1079       F  0.91547474  0.68264571  0.42156833    -0.22800
H1080       H  0.88245736  0.72899724  0.43193997     0.18500
C1081       C  0.50633521  0.85993973  0.87137218    -0.26800
C1082       C  0.48160000  0.86335528  0.89042496     0.06800
C1083       C  0.46259799  0.83869166  0.89519831     0.26400
C1084       C  0.46716754  0.81203386  0.87957176    -0.11300
C1085       C  0.49094963  0.80931947  0.85927654    -0.25200
C1086       C  0.51126307  0.83308940  0.85633756     0.37200
C1087       C  0.47428163  0.89331547  0.90271587     0.06800
F1088       F  0.43937000  0.84046960  0.91464865    -0.19000
H1089       H  0.45162507  0.79377517  0.88267289     0.16600
F1090       F  0.53574722  0.83047228  0.83864340    -0.22700
H1091       H  0.52131789  0.87842007  0.86716379     0.18400
C1092       C  0.49655456  0.91240015  0.91419653     0.26400
C1093       C  0.48965424  0.94183382  0.92205778    -0.11300
C1094       C  0.46035441  0.95243050  0.91942998    -0.25300
C1095       C  0.43791621  0.93308494  0.90910610     0.37300
C1096       C  0.44492504  0.90401689  0.90052511    -0.26900
F1097       F  0.52493855  0.90262759  0.91790529    -0.19100
H1098       H  0.50713540  0.95629683  0.93039475     0.16600
F1099       F  0.40943294  0.94275815  0.90580192    -0.22800
H1100       H  0.42748013  0.89022619  0.89109149     0.18500
C1101       C  0.52125285  0.66569371  0.89133333    -0.26800
C1102       C  0.50605079  0.64086096  0.87952808     0.06800
C1103       C  0.48620789  0.64537111  0.85555599     0.26400
C1104       C  0.48231757  0.67383544  0.84350513    -0.11300
C1105       C  0.49930831  0.69812543  0.85379936    -0.25200
C1106       C  0.51840541  0.69387959  0.87832806     0.37200
C1107       C  0.51186013  0.61038190  0.89150963     0.06800
F1108       F  0.47168401  0.62213041  0.84262961    -0.19000
H1109       H  0.46676851  0.67664742  0.82526828     0.16600
F1110       F  0.53534507  0.71665085  0.88896511    -0.22700
H1111       H  0.53594926  0.66320909  0.91031352     0.18400
C1112       C  0.54111866  0.60114120  0.89827536     0.26400
C1113       C  0.54648149  0.57230651  0.90874329    -0.11300
C1114       C  0.52307362  0.55166045  0.91191982    -0.25300
C1115       C  0.49382446  0.56077217  0.90520314     0.37300
C1116       C  0.48830704  0.58994867  0.89558550    -0.26900
F1117       F  0.56482822  0.61945789  0.89356065    -0.19100
H1118       H  0.56926870  0.56577883  0.91333544     0.16600
F1119       F  0.47049464  0.54163541  0.90817789    -0.22800
H1120       H  0.46549398  0.59652194  0.89129710     0.18500
C1121       C  0.45894045  0.84528824  0.76698960    -0.26800
C1122       C  0.48129131  0.85275295  0.74620813     0.06800
C1123       C  0.51012266  0.84116765  0.74986528     0.26400
C1124       C  0.51572845  0.82048237  0.77248819    -0.11300
C1125       C  0.49279700  0.81131934  0.79189629    -0.25200
C1126       C  0.46462520  0.82476350  0.78978610     0.37200
C1127       C  0.47343911  0.86910706  0.71866317     0.06800
F1128       F  0.53205396  0.84768095  0.72991419    -0.19000
H1129       H  0.53747763  0.81002865  0.77364839     0.16600
F1130       F  0.44191833  0.81595488  0.80789504    -0.22700
H1131       H  0.43658931  0.85409541  0.76446280     0.18400
C1132       C  0.45211232  0.85708204  0.69909077     0.26400
C1133       C  0.44521981  0.87171869  0.67250546    -0.11300
C1134       C  0.45970096  0.89844186  0.66463970    -0.25300
C1135       C  0.48124283  0.91040969  0.68417082     0.37300
C1136       C  0.48802446  0.89576910  0.71098191    -0.26900
F1137       F  0.43873246  0.83055644  0.70518888    -0.19100
H1138       H  0.42891732  0.86171225  0.65769288     0.16600
F1139       F  0.49537168  0.93640734  0.67762971    -0.22800
H1140       H  0.50463561  0.90522596  0.72580205     0.18500
C1141       C  0.48903426  0.67472925  0.74312900    -0.26800
C1142       C  0.51478491  0.65701548  0.74472126     0.06800
C1143       C  0.53507835  0.66192732  0.76829401     0.26400
C1144       C  0.53012310  0.68483233  0.78902054    -0.11300
C1145       C  0.50483734  0.70304500  0.78668002    -0.25200
C1146       C  0.48404976  0.69745037  0.76386691     0.37200
C1147       C  0.52155476  0.63586148  0.71998170     0.06800
F1148       F  0.55990994  0.64490688  0.77103238    -0.19000
H1149       H  0.54636521  0.68887024  0.80643384     0.16600
F1150       F  0.45919507  0.71448879  0.76127487    -0.22700
H1151       H  0.47331859  0.67184404  0.72502163     0.18400
C1152       C  0.49948403  0.61680546  0.70814874     0.26400
C1153       C  0.50501674  0.60042582  0.68201448    -0.11300
C1154       C  0.53261295  0.60270379  0.66715831    -0.25300
C1155       C  0.55520922  0.62048445  0.68007900     0.37300
C1156       C  0.54959310  0.63689683  0.70601559    -0.26900
F1157       F  0.47237566  0.61443850  0.72154378    -0.19100
H1158       H  0.48728869  0.58673915  0.67285061     0.16600
F1159       F  0.58262128  0.62276858  0.66729686    -0.22800
H1160       H  0.56691650  0.65156263  0.71441332     0.18500
C1161       C  0.87903425  0.47352819  0.84171365    -0.26800
C1162       C  0.87252343  0.49519304  0.86344508     0.06800
C1163       C  0.85369184  0.51904675  0.85587343     0.26400
C1164       C  0.84040406  0.52024008  0.82760663    -0.11300
C1165       C  0.84546152  0.49757590  0.80649189    -0.25200
C1166       C  0.86558893  0.47462410  0.81347273     0.37200
C1167       C  0.88306882  0.49114503  0.89463170     0.06800
F1168       F  0.84763277  0.54080527  0.87608200    -0.19000
H1169       H  0.82529118  0.53832365  0.82251160     0.16600
F1170       F  0.87072953  0.45224556  0.79370562    -0.22700
H1171       H  0.89337151  0.45492830  0.84715664     0.18400
C1172       C  0.86230228  0.48774031  0.91796555     0.26400
C1173       C  0.87193037  0.48143802  0.94697893    -0.11300
C1174       C  0.90247893  0.47860096  0.95354855    -0.25300
C1175       C  0.92335974  0.48276171  0.93028120     0.37300
C1176       C  0.91363566  0.48868950  0.90105240    -0.26900
F1177       F  0.83256580  0.48913387  0.91241836    -0.19100
H1178       H  0.85529954  0.47831444  0.96433398     0.16600
F1179       F  0.95302832  0.47978208  0.93542541    -0.22800
H1180       H  0.92996582  0.49103027  0.88329093     0.18500
C1181       C  0.90889506  0.49706501  0.59611885    -0.26800
C1182       C  0.88191340  0.50929611  0.60642076     0.06800
C1183       C  0.86568187  0.52798291  0.58740987     0.26400
C1184       C  0.87619867  0.53440516  0.55867649    -0.11300
C1185       C  0.90327261  0.52240426  0.54796490    -0.25200
C1186       C  0.91957211  0.50350537  0.56714922     0.37200
C1187       C  0.87072731  0.50358299  0.63718271     0.06800
F1188       F  0.83963421  0.54026452  0.59679581    -0.19000
H1189       H  0.86298878  0.54910270  0.54482219     0.16600
F1190       F  0.94566167  0.49118481  0.55802032    -0.22700
H1191       H  0.92173930  0.48262094  0.61058806     0.18400
C1192       C  0.85003874  0.48065320  0.64283333     0.26400
C1193       C  0.83667836  0.47791086  0.67111693    -0.11300
C1194       C  0.84329201  0.49830063  0.69414246    -0.25300
C1195       C  0.86465323  0.52075026  0.68858573     0.37300
C1196       C  0.87814953  0.52331906  0.66036921    -0.26900
F1197       F  0.84202130  0.46155608  0.62069994    -0.19100
H1198       H  0.82054471  0.46028936  0.67483842     0.16600
F1199       F  0.87119249  0.54130080  0.70988109    -0.22800
H1200       H  0.89363950  0.54142088  0.65625102     0.18500
C1201       C  0.73529455  0.51068103  0.83614074    -0.26800
C1202       C  0.73900855  0.48701513  0.85634703     0.06800
C1203       C  0.76397661  0.46823192  0.85291729     0.26400
C1204       C  0.78332050  0.47181271  0.82848954    -0.11300
C1205       C  0.77853282  0.49452181  0.80739716    -0.25200
C1206       C  0.75486599  0.51455529  0.81209798     0.37200
C1207       C  0.71441974  0.47965022  0.87761790     0.06800
F1208       F  0.76908587  0.44578692  0.87259080    -0.19000
H1209       H  0.80134216  0.45605514  0.82539108     0.16600
F1210       F  0.74992835  0.53724753  0.79267034    -0.22700
H1211       H  0.71614704  0.52527996  0.83788331     0.18400
C1212       C  0.69920665  0.50199682  0.89374038     0.26400
C1213       C  0.67215672  0.49550875  0.90822448    -0.11300
C1214       C  0.65985176  0.46668007  0.90693544    -0.25300
C1215       C  0.67650637  0.44384949  0.89313190     0.37300
C1216       C  0.70326506  0.45038828  0.87852100    -0.26900
F1217       F  0.70993053  0.53031498  0.89459366    -0.19100
H1218       H  0.66013130  0.51341104  0.91918241     0.16600
F1219       F  0.66641680  0.41527423  0.89266062    -0.22800
H1220       H  0.71430106  0.43268904  0.86626956     0.18500
C1221       C  0.75653553  0.52927511  0.65629733    -0.26800
C1222       C  0.73241805  0.50945855  0.65264218     0.06800
C1223       C  0.73125167  0.48359361  0.67045436     0.26400
C1224       C  0.75289352  0.47863902  0.69237045    -0.11300
C1225       C  0.77588047  0.49944415  0.69724871    -0.25200
C1226       C  0.77775267  0.52466661  0.67869171     0.37200
C1227       C  0.70703327  0.51754755  0.63282412     0.06800
F1228       F  0.70804142  0.46421014  0.66828683    -0.19000
H1229       H  0.75090255  0.45921212  0.70660345     0.16600
F1230       F  0.79876291  0.54594862  0.68356586    -0.22700
H1231       H  0.75818120  0.54915552  0.64267954     0.18400
C1232       C  0.69448732  0.54622056  0.63444841     0.26400
C1233       C  0.66910451  0.55320925  0.61796286    -0.11300
C1234       C  0.65508330  0.53178027  0.59975960    -0.25300
C1235       C  0.66805642  0.50326963  0.59741274     0.37300
C1236       C  0.69385891  0.49636290  0.61370576    -0.26900
F1237       F  0.70563374  0.56711980  0.65337255    -0.19100
H1238       H  0.65979031  0.57532875  0.62044898     0.16600
F1239       F  0.65542539  0.48176426  0.58020161    -0.22800
H1240       H  0.70325300  0.47422668  0.61179428     0.18500
loop_ 
_geom_bond_atom_site_label_1 
_geom_bond_atom_site_label_2 
_geom_bond_distance 
_geom_bond_site_symmetry_2 
_ccdc_geom_bond_type 
C1            C2   1.419       .  A
C1            C6   1.414       .  A
C1         C1194   1.498       .  S
C2            C3   1.403       .  A
C2         C1225   1.488       .  S
C3            C4   1.402       .  A
C3            H8   1.085       .  S
C4            C5   1.417       .  A
C4         C1205   1.494       .  S
C5            C6   1.413       .  A
C5         C1165   1.489       .  S
C6            H7   1.084       .  S
C9           C10   1.418       .  A
C9           C14   1.412       .  A
C9         C1105   1.490       .  S
C10          C11   1.397       .  A
C10        C1145   1.484       .  S
C11          C12   1.398       .  A
C11          H16   1.085       .  S
C12          C13   1.414       .  A
C12        C1125   1.480       .  S
C13          C14   1.409       .  A
C13        C1085   1.487       .  S
C14          H15   1.083       .  S
C17          C18   1.409       .  A
C17          C22   1.400       .  A
C17        C1065   1.480       .  S
C18          C19   1.404       .  A
C18        C1005   1.477       .  S
C19          C20   1.407       .  A
C19          H24   1.086       .  S
C20          C21   1.420       .  A
C20        C1025   1.482       .  S
C21          C22   1.405       .  A
C21        C1045   1.494       .  S
C22          H23   1.086       .  S
Zn25         O29   1.977       .  S
Zn25         O30   2.052       .  S
Zn25         O34   2.030       .  S
Zn25         O41   2.021       .  S
Zn26         O29   1.936       .  S
Zn26         O31   1.988       .  S
Zn26         O33   1.986       .  S
Zn26         O37   1.992       .  S
Zn27         O29   1.970       .  S
Zn27         O32   2.021       .  S
Zn27         O35   2.047       .  S
Zn27         O38   2.028       .  S
Zn28         O29   1.968       .  S
Zn28         O36   2.028   1_556  S
Zn28         O39   2.041       .  S
Zn28         O40   2.035       .  S
O30          C42   1.276       .  A
O31          C43   1.270       .  A
O32          C44   1.276       .  A
O33          C42   1.270       .  A
O34          C44   1.276       .  A
O35          C43   1.275       .  A
O36          C45   1.276       .  A
O37          C46   1.270       .  A
O38          C45   1.276   1_556  A
O39          C46   1.274       .  A
O40          C47   1.277       .  A
O41          C47   1.275       .  A
C42         C945   1.489       .  S
C43        C1214   1.485       .  S
C44        C1114   1.483       .  S
C45         C965   1.481       .  S
C46         C925   1.489       .  S
C47         C994   1.484       .  S
Zn48         O52   1.966       .  S
Zn48         O53   2.045       .  S
Zn48         O57   2.031       .  S
Zn48         O64   2.020       .  S
Zn49         O52   1.936       .  S
Zn49         O54   1.991       .  S
Zn49         O56   1.990       .  S
Zn49         O60   1.995       .  S
Zn50         O52   1.971       .  S
Zn50         O55   2.025       .  S
Zn50         O58   2.055       .  S
Zn50         O61   2.025       .  S
Zn51         O52   1.970       .  S
Zn51         O59   2.018       .  S
Zn51         O62   2.049       .  S
Zn51         O63   2.039       .  S
O53          C65   1.276       .  A
O54          C66   1.271       .  A
O55          C67   1.276       .  A
O56          C65   1.271       .  A
O57          C67   1.276       .  A
O58          C66   1.277       .  A
O59          C68   1.275       .  A
O60          C69   1.270       .  A
O61          C68   1.276       .  A
O62          C69   1.276       .  A
O63          C70   1.278       .  A
O64          C70   1.275       .  A
C65        C1234   1.488       .  S
C66        C1054   1.489       .  S
C67         C885   1.490       .  S
C68         C874   1.476       .  S
C69        C1154   1.489       .  S
C70         C914   1.489       .  S
Zn71         O75   1.972       .  S
Zn71         O76   2.055       .  S
Zn71         O80   2.040       .  S
Zn71         O87   2.029   1_565  S
Zn72         O75   1.932       .  S
Zn72         O77   1.982       .  S
Zn72         O79   1.977       .  S
Zn72         O83   1.993       .  S
Zn73         O75   1.956       .  S
Zn73         O78   2.011       .  S
Zn73         O81   2.027       .  S
Zn73         O84   2.018       .  S
Zn74         O75   1.961       .  S
Zn74         O82   2.038       .  S
Zn74         O85   2.036       .  S
Zn74         O86   2.021       .  S
O76          C88   1.276       .  A
O77          C89   1.268       .  A
O78          C90   1.274       .  A
O79          C88   1.270       .  A
O80          C90   1.278       .  A
O81          C89   1.273       .  A
O82          C91   1.277       .  A
O83          C92   1.271       .  A
O84          C91   1.275       .  A
O85          C92   1.274       .  A
O86          C93   1.276   1_565  A
O87          C93   1.276       .  A
C88         C825   1.484       .  S
C89         C814   1.481       .  S
C90         C794   1.480       .  S
C91        C1034   1.486       .  S
C92        C1134   1.481       .  S
C93         C845   1.480       .  S
C94          C95   1.414       .  A
C94          C99   1.406       .  A
C94         C905   1.480       .  S
C95          C96   1.403       .  A
C95         C954   1.489       .  S
C96          C97   1.403       .  A
C96         H101   1.085       .  S
C97          C98   1.416       .  A
C97         C765   1.488       .  S
C98          C99   1.408       .  A
C98         C854   1.484       .  S
C99         H100   1.085       .  S
Zn102       O106   1.922       .  S
Zn102       O107   1.980       .  S
Zn102       O111   1.964       .  S
Zn102       O118   1.965       .  S
Zn103       O106   1.962       .  S
Zn103       O108   2.003   1_545  S
Zn103       O110   2.035       .  S
Zn103       O114   2.012       .  S
Zn104       O106   1.972       .  S
Zn104       O109   2.062       .  S
Zn104       O112   2.033       .  S
Zn104       O115   2.016       .  S
Zn105       O106   1.970       .  S
Zn105       O113   2.031       .  S
Zn105       O116   2.022   1_556  S
Zn105       O117   2.040       .  S
O107        C119   1.269       .  A
O108        C120   1.273       .  A
O109        C121   1.277       .  A
O110        C119   1.273       .  A
O111        C121   1.267       .  A
O112        C120   1.276   1_545  A
O113        C122   1.277       .  A
O114        C123   1.274   1_556  A
O115        C122   1.275       .  A
O116        C123   1.276       .  A
O117        C124   1.274       .  A
O118        C124   1.268       .  A
C119        C705   1.484       .  S
C120       C1094   1.475       .  S
C121        C774   1.488       .  S
C122        C754   1.481       .  S
C123        C685   1.475       .  S
C124        C725   1.482       .  S
C125        C126   1.416       .  A
C125        C130   1.411       .  A
C125        C745   1.479       .  S
C126        C127   1.398       .  A
C126        C934   1.487   1_554  S
C127        C128   1.396       .  A
C127        H132   1.086       .  S
C128        C129   1.409       .  A
C128        C665   1.472       .  S
C129        C130   1.408       .  A
C129        C654   1.482       .  S
C130        H131   1.085       .  S
C133        C134   1.419       .  A
C133        C138   1.398       .  A
C133        C834   1.487       .  S
C134        C135   1.411       .  A
C134        C634   1.489       .  S
C135        C136   1.408       .  A
C135        H140   1.083       .  S
C136        C137   1.414       .  A
C136        C605   1.489       .  S
C137        C138   1.397       .  A
C137        C714   1.480       .  S
C138        H139   1.086       .  S
C141        C142   1.419       .  A
C141        C146   1.403       .  A
C141        C585   1.483       .  S
C142        C143   1.413       .  A
C142        C534   1.498       .  S
C143        C144   1.411       .  A
C143        H148   1.083       .  S
C144        C145   1.414       .  A
C144        C545   1.485       .  S
C145        C146   1.397       .  A
C145        C565   1.487       .  S
C146        H147   1.085       .  S
C149        C150   1.412       .  A
C149        C154   1.396       .  A
C149        C805   1.477       .  S
C150        C151   1.409       .  A
C150        C865   1.486       .  S
C151        C152   1.409       .  A
C151        H156   1.086       .  S
C152        C153   1.415       .  A
C152        C494   1.480       .  S
C153        C154   1.398       .  A
C153        C505   1.486       .  S
C154        H155   1.086       .  S
C157        C158   1.417       .  A
C157        C162   1.412       .  A
C157        C974   1.492       .  S
C158        C159   1.399       .  A
C158        C465   1.479       .  S
C159        C160   1.396       .  A
C159        H164   1.085       .  S
C160        C161   1.409       .  A
C160        C454   1.478       .  S
C161        C162   1.409       .  A
C161        C894   1.478       .  S
C162        H163   1.083       .  S
Zn165       O169   1.960       .  S
Zn165       O170   2.001       .  S
Zn165       O174   2.045       .  S
Zn165       O181   2.009       .  S
Zn166       O169   1.998       .  S
Zn166       O171   2.071   1_655  S
Zn166       O173   2.072       .  S
Zn166       O177   2.089       .  S
Zn167       O169   1.956       .  S
Zn167       O172   2.018       .  S
Zn167       O175   1.988       .  S
Zn167       O178   2.026       .  S
Zn168       O169   1.959       .  S
Zn168       O176   2.009       .  S
Zn168       O179   2.000       .  S
Zn168       O180   2.024       .  S
O170        C182   1.274       .  A
O171        C183   1.281       .  A
O172        C184   1.272       .  A
O173        C182   1.281       .  A
O174        C184   1.275       .  A
O175        C183   1.272   1_655  A
O176        C185   1.272       .  A
O177        C186   1.282       .  A
O178        C185   1.273       .  A
O179        C186   1.273       .  A
O180        C187   1.273       .  A
O181        C187   1.273       .  A
C182        C425   1.492       .  S
C183        C485   1.491       .  S
C184        C574   1.488       .  S
C185       C1074   1.482       .  S
C186       C1185   1.500       .  S
C187        C445   1.484       .  S
Zn188       O192   1.935       .  S
Zn188       O193   1.975       .  S
Zn188       O197   1.980       .  S
Zn188       O204   1.990       .  S
Zn189       O192   1.967       .  S
Zn189       O194   2.013   1_455  S
Zn189       O196   2.048       .  S
Zn189       O200   2.034       .  S
Zn190       O192   1.973       .  S
Zn190       O195   2.043       .  S
Zn190       O198   2.037   1_455  S
Zn190       O201   2.028       .  S
Zn191       O192   1.962       .  S
Zn191       O199   2.008       .  S
Zn191       O202   2.023   1_565  S
Zn191       O203   2.032       .  S
O193        C205   1.268       .  A
O194        C206   1.275       .  A
O195        C207   1.274       .  A
O196        C205   1.275       .  A
O197        C207   1.268       .  A
O198        C206   1.278       .  A
O199        C208   1.273       .  A
O200        C209   1.276   1_565  A
O201        C208   1.276       .  A
O202        C209   1.275       .  A
O203        C210   1.274       .  A
O204        C210   1.271       .  A
C205        C594   1.487       .  S
C206       C1014   1.487       .  S
C207        C514   1.475       .  S
C208        C625   1.475       .  S
C209        C394   1.491       .  S
C210        C414   1.482       .  S
Zn211       O215   1.953       .  S
Zn211       O216   2.002       .  S
Zn211       O220   2.000       .  S
Zn211       O227   2.041       .  S
Zn212       O215   1.961       .  S
Zn212       O217   2.010       .  S
Zn212       O219   2.021       .  S
Zn212       O223   2.016       .  S
Zn213       O215   1.982       .  S
Zn213       O218   2.056       .  S
Zn213       O221   2.056   1_554  S
Zn213       O224   2.051       .  S
Zn214       O215   1.943       .  S
Zn214       O222   1.985       .  S
Zn214       O225   2.010       .  S
Zn214       O226   2.008       .  S
O216        C228   1.273       .  A
O217        C229   1.274   1_554  A
O218        C230   1.279       .  A
O219        C228   1.273       .  A
O220        C230   1.273       .  A
O221        C229   1.278       .  A
O222        C231   1.272   1_655  A
O223        C232   1.273       .  A
O224        C231   1.278   1_655  A
O225        C232   1.272       .  A
O226        C233   1.272       .  A
O227        C233   1.274       .  A
C228        C474   1.483       .  S
C229       C1174   1.489       .  S
C230        C554   1.488       .  S
C231        C345   1.486       .  S
C232        C674   1.478       .  S
C233        C365   1.491       .  S
C234        C235   1.416       .  A
C234        C239   1.399       .  A
C234        C405   1.480       .  S
C235        C236   1.409       .  A
C235        C785   1.491       .  S
C236        C237   1.410       .  A
C236        H241   1.084       .  S
C237        C238   1.416   1_565  A
C237        C694   1.487   1_565  S
C238        C239   1.397   1_545  A
C238        C325   1.486       .  S
C239        H240   1.085       .  S
Zn242       O246   1.965       .  S
Zn242       O247   2.011   1_554  S
Zn242       O251   2.038       .  S
Zn242       O258   2.041   1_455  S
Zn243       O246   1.980       .  S
Zn243       O248   2.049       .  S
Zn243       O250   2.035       .  S
Zn243       O254   2.036   1_545  S
Zn244       O246   1.945       .  S
Zn244       O249   2.007       .  S
Zn244       O252   1.983       .  S
Zn244       O255   1.987       .  S
Zn245       O246   1.966       .  S
Zn245       O253   2.044       .  S
Zn245       O256   2.026       .  S
Zn245       O257   2.017   1_455  S
O247        C259   1.275       .  A
O248        C260   1.277       .  A
O249        C261   1.271       .  A
O250        C259   1.276   1_554  A
O251        C261   1.275       .  A
O252        C260   1.269       .  A
O253        C262   1.275       .  A
O254        C263   1.276       .  A
O255        C262   1.270       .  A
O256        C263   1.275   1_545  A
O257        C264   1.275       .  A
O258        C264   1.277       .  A
C259        C614   1.478       .  S
C260        C334   1.487       .  S
C261        C285   1.482       .  S
C262        C305   1.475       .  S
C263        C525   1.483       .  S
C264        C645   1.492       .  S
C265        C266   1.414       .  A
C265        C270   1.413       .  A
C265        C434   1.486   1_455  S
C266        C267   1.398       .  A
C266        C374   1.485   1_455  S
C267        C268   1.400       .  A
C267        H272   1.086       .  S
C268        C269   1.415       .  A
C268        C314   1.486       .  S
C269        C270   1.411       .  A
C269        C385   1.486       .  S
C270        H271   1.085   1_455  S
C273        C274   1.411       .  A
C273        C278   1.405       .  A
C273        C985   1.480       .  S
C274        C275   1.398       .  A
C274        C734   1.480       .  S
C275        C276   1.398       .  A
C275        H280   1.087       .  S
C276        C277   1.417       .  A
C276        C294   1.485   1_556  S
C277        C278   1.409       .  A
C277        C354   1.481   1_556  S
C278        H279   1.086       .  S
C281        C282   1.407       .  A
C281        C286   1.399       .  A
C281        H291   1.084       .  S
C282        C283   1.411   1_554  A
C282        C287   1.493       .  S
C283        C284   1.401   1_556  A
C283        F288   1.357       .  S
C284        C285   1.404       .  A
C284        H289   1.084   1_554  S
C285        C286   1.407       .  A
C286        F290   1.358       .  S
C287        C292   1.412   1_554  A
C287        C296   1.406       .  A
C292        C293   1.404       .  A
C292        F297   1.357       .  S
C293        C294   1.404   1_556  A
C293        H298   1.083       .  S
C294        C295   1.404       .  A
C295        C296   1.395       .  A
C295        F299   1.358       .  S
C296        H300   1.083       .  S
C301        C302   1.404       .  A
C301        C306   1.395       .  A
C301        H311   1.083       .  S
C302        C303   1.410   1_455  A
C302        C307   1.485       .  S
C303        C304   1.402       .  A
C303        F308   1.357       .  S
C304        C305   1.403   1_655  A
C304        H309   1.083       .  S
C305        C306   1.406       .  A
C306        F310   1.358       .  S
C307        C312   1.408   1_455  A
C307        C316   1.404       .  A
C312        C313   1.403       .  A
C312        F317   1.357       .  S
C313        C314   1.406   1_655  A
C313        H318   1.083       .  S
C314        C315   1.405       .  A
C315        C316   1.393       .  A
C315        F319   1.358       .  S
C316        H320   1.084       .  S
C321        C322   1.405   1_565  A
C321        C326   1.396       .  A
C321        H331   1.082       .  S
C322        C323   1.409       .  A
C322        C327   1.485       .  S
C323        C324   1.399       .  A
C323        F328   1.357       .  S
C324        C325   1.404       .  A
C324        H329   1.082       .  S
C325        C326   1.405   1_545  A
C326        F330   1.358       .  S
C327        C332   1.408       .  A
C327        C336   1.402       .  A
C332        C333   1.402       .  A
C332        F337   1.357   1_545  S
C333        C334   1.406       .  A
C333        H338   1.083   1_545  S
C334        C335   1.413       .  A
C335        C336   1.394       .  A
C335        F339   1.358       .  S
C336        H340   1.084       .  S
C341        C342   1.400       .  A
C341        C346   1.391       .  A
C341        H351   1.084       .  S
C342        C343   1.407       .  A
C342        C347   1.480       .  S
C343        C344   1.405       .  A
C343        F348   1.357       .  S
C344        C345   1.408       .  A
C344        H349   1.083       .  S
C345        C346   1.411       .  A
C346        F350   1.358       .  S
C347        C352   1.407       .  A
C347        C356   1.404   1_554  A
C352        C353   1.394       .  A
C352        F357   1.358       .  S
C353        C354   1.402       .  A
C353        H358   1.082       .  S
C354        C355   1.407   1_554  A
C355        C356   1.401       .  A
C355        F359   1.357       .  S
C356        H360   1.082       .  S
C361        C362   1.405       .  A
C361        C366   1.405       .  A
C361        H371   1.084       .  S
C362        C363   1.406       .  A
C362        C367   1.487       .  S
C363        C364   1.396       .  A
C363        F368   1.358       .  S
C364        C365   1.407       .  A
C364        H369   1.084       .  S
C365        C366   1.412       .  A
C366        F370   1.357       .  S
C367        C372   1.407   1_655  A
C367        C376   1.406       .  A
C372        C373   1.398       .  A
C372        F377   1.358       .  S
C373        C374   1.404   1_455  A
C373        H378   1.083       .  S
C374        C375   1.406       .  A
C375        C376   1.401       .  A
C375        F379   1.357       .  S
C376        H380   1.083       .  S
C381        C382   1.406   1_655  A
C381        C386   1.404       .  A
C381        H391   1.083       .  S
C382        C383   1.407       .  A
C382        C387   1.486       .  S
C383        C384   1.399       .  A
C383        F388   1.357       .  S
C384        C385   1.403       .  A
C384        H389   1.083       .  S
C385        C386   1.406   1_455  A
C386        F390   1.357       .  S
C387        C392   1.406       .  A
C387        C396   1.403   1_455  A
C392        C393   1.401       .  A
C392        F397   1.358       .  S
C393        C394   1.409       .  A
C393        H398   1.084       .  S
C394        C395   1.411       .  A
C395        C396   1.401   1_455  A
C395        F399   1.357   1_455  S
C396        H400   1.085       .  S
C401        C402   1.405       .  A
C401        C406   1.397       .  A
C401        H411   1.082       .  S
C402        C403   1.405   1_565  A
C402        C407   1.477       .  S
C403        C404   1.396       .  A
C403        F408   1.358       .  S
C404        C405   1.403   1_545  A
C404        H409   1.082       .  S
C405        C406   1.405       .  A
C406        F410   1.357       .  S
C407        C412   1.403       .  A
C407        C416   1.404       .  A
C412        C413   1.393       .  A
C412        F417   1.358       .  S
C413        C414   1.406       .  A
C413        H418   1.083       .  S
C414        C415   1.410       .  A
C415        C416   1.401       .  A
C415        F419   1.357       .  S
C416        H420   1.083       .  S
C421        C422   1.406       .  A
C421        C426   1.407       .  A
C421        H431   1.083   1_655  S
C422        C423   1.402       .  A
C422        C427   1.483       .  S
C423        C424   1.396       .  A
C423        F428   1.358       .  S
C424        C425   1.409       .  A
C424        H429   1.083       .  S
C425        C426   1.411       .  A
C426        F430   1.357   1_655  S
C427        C432   1.405   1_655  A
C427        C436   1.405       .  A
C432        C433   1.402       .  A
C432        F437   1.357       .  S
C433        C434   1.406   1_455  A
C433        H438   1.084       .  S
C434        C435   1.404       .  A
C435        C436   1.400       .  A
C435        F439   1.357       .  S
C436        H440   1.084       .  S
C441        C442   1.403       .  A
C441        C446   1.402       .  A
C441        H451   1.083       .  S
C442        C443   1.405       .  A
C442        C447   1.481       .  S
C443        C444   1.396       .  A
C443        F448   1.358       .  S
C444        C445   1.406       .  A
C444        H449   1.083       .  S
C445        C446   1.411       .  A
C446        F450   1.357       .  S
C447        C452   1.406       .  A
C447        C456   1.404       .  A
C452        C453   1.399       .  A
C452        F457   1.357       .  S
C453        C454   1.402       .  A
C453        H458   1.084       .  S
C454        C455   1.404       .  A
C455        C456   1.399       .  A
C455        F459   1.357       .  S
C456        H460   1.084       .  S
C461        C462   1.406       .  A
C461        C466   1.401       .  A
C461        H471   1.083       .  S
C462        C463   1.407       .  A
C462        C467   1.482       .  S
C463        C464   1.394       .  A
C463        F468   1.358       .  S
C464        C465   1.401       .  A
C464        H469   1.083       .  S
C465        C466   1.405       .  A
C466        F470   1.357       .  S
C467        C472   1.406       .  A
C467        C476   1.404       .  A
C472        C473   1.391       .  A
C472        F477   1.358       .  S
C473        C474   1.405       .  A
C473        H478   1.084       .  S
C474        C475   1.411       .  A
C475        C476   1.402       .  A
C475        F479   1.357       .  S
C476        H480   1.084       .  S
C481        C482   1.400       .  A
C481        C486   1.394       .  A
C481        H491   1.084       .  S
C482        C483   1.407       .  A
C482        C487   1.482       .  S
C483        C484   1.406       .  A
C483        F488   1.357       .  S
C484        C485   1.408       .  A
C484        H489   1.083       .  S
C485        C486   1.414       .  A
C486        F490   1.358       .  S
C487        C492   1.407       .  A
C487        C496   1.405       .  A
C492        C493   1.397       .  A
C492        F497   1.358       .  S
C493        C494   1.402       .  A
C493        H498   1.082       .  S
C494        C495   1.405       .  A
C495        C496   1.402       .  A
C495        F499   1.357       .  S
C496        H500   1.082       .  S
C501        C502   1.404       .  A
C501        C506   1.394       .  A
C501        H511   1.083       .  S
C502        C503   1.405       .  A
C502        C507   1.480       .  S
C503        C504   1.400       .  A
C503        F508   1.357       .  S
C504        C505   1.406       .  A
C504        H509   1.082       .  S
C505        C506   1.407       .  A
C506        F510   1.358       .  S
C507        C512   1.408       .  A
C507        C516   1.402       .  A
C512        C513   1.400       .  A
C512        F517   1.357       .  S
C513        C514   1.403       .  A
C513        H518   1.084       .  S
C514        C515   1.408       .  A
C515        C516   1.395       .  A
C515        F519   1.358       .  S
C516        H520   1.084       .  S
C521        C522   1.407   1_655  A
C521        C526   1.401       .  A
C521        H531   1.083       .  S
C522        C523   1.411       .  A
C522        C527   1.495   1_455  S
C523        C524   1.401       .  A
C523        F528   1.357       .  S
C524        C525   1.404       .  A
C524        H529   1.084       .  S
C525        C526   1.407   1_455  A
C526        F530   1.358       .  S
C527        C532   1.410       .  A
C527        C536   1.407   1_655  A
C532        C533   1.400       .  A
C532        F537   1.357       .  S
C533        C534   1.407       .  A
C533        H538   1.083       .  S
C534        C535   1.409   1_655  A
C535        C536   1.402       .  A
C535        F539   1.357       .  S
C536        H540   1.083       .  S
C541        C542   1.405       .  A
C541        C546   1.403       .  A
C541        H551   1.083   1_655  S
C542        C543   1.407       .  A
C542        C547   1.483       .  S
C543        C544   1.395       .  A
C543        F548   1.358       .  S
C544        C545   1.403       .  A
C544        H549   1.083       .  S
C545        C546   1.407       .  A
C546        F550   1.357   1_655  S
C547        C552   1.406       .  A
C547        C556   1.401       .  A
C552        C553   1.404       .  A
C552        F557   1.357       .  S
C553        C554   1.408       .  A
C553        H558   1.083       .  S
C554        C555   1.411       .  A
C555        C556   1.395       .  A
C555        F559   1.358       .  S
C556        H560   1.084       .  S
C561        C562   1.407       .  A
C561        C566   1.404       .  A
C561        H571   1.083   1_655  S
C562        C563   1.408       .  A
C562        C567   1.488       .  S
C563        C564   1.399       .  A
C563        F568   1.357       .  S
C564        C565   1.402       .  A
C564        H569   1.083       .  S
C565        C566   1.406       .  A
C566        F570   1.357   1_655  S
C567        C572   1.408       .  A
C567        C576   1.403       .  A
C572        C573   1.404       .  A
C572        F577   1.357       .  S
C573        C574   1.407       .  A
C573        H578   1.084       .  S
C574        C575   1.409       .  A
C575        C576   1.400       .  A
C575        F579   1.357   1_655  S
C576        H580   1.084   1_655  S
C581        C582   1.404       .  A
C581        C586   1.397       .  A
C581        H591   1.082       .  S
C582        C583   1.410   1_655  A
C582        C587   1.484   1_655  S
C583        C584   1.398       .  A
C583        F588   1.358       .  S
C584        C585   1.402   1_455  A
C584        H589   1.083       .  S
C585        C586   1.406       .  A
C586        F590   1.357       .  S
C587        C592   1.408   1_455  A
C587        C596   1.401       .  A
C592        C593   1.404       .  A
C592        F597   1.357       .  S
C593        C594   1.407   1_655  A
C593        H598   1.083       .  S
C594        C595   1.413       .  A
C595        C596   1.392       .  A
C595        F599   1.358       .  S
C596        H600   1.084       .  S
C601        C602   1.408       .  A
C601        C606   1.398       .  A
C601        H611   1.082       .  S
C602        C603   1.409   1_545  A
C602        C607   1.491       .  S
C603        C604   1.398       .  A
C603        F608   1.357       .  S
C604        C605   1.405   1_565  A
C604        H609   1.082       .  S
C605        C606   1.406       .  A
C606        F610   1.357       .  S
C607        C612   1.410       .  A
C607        C616   1.409   1_545  A
C612        C613   1.395       .  A
C612        F617   1.357       .  S
C613        C614   1.403       .  A
C613        H618   1.084       .  S
C614        C615   1.406       .  A
C615        C616   1.402   1_545  A
C615        F619   1.357   1_545  S
C616        H620   1.083       .  S
C621        C622   1.406   1_545  A
C621        C626   1.398   1_545  A
C621        H631   1.083       .  S
C622        C623   1.411       .  A
C622        C627   1.488       .  S
C623        C624   1.397       .  A
C623        F628   1.358       .  S
C624        C625   1.402       .  A
C624        H629   1.084       .  S
C625        C626   1.406       .  A
C626        F630   1.357   1_565  S
C627        C632   1.410   1_565  A
C627        C636   1.405       .  A
C632        C633   1.398       .  A
C632        F637   1.357       .  S
C633        C634   1.406       .  A
C633        H638   1.082       .  S
C634        C635   1.407   1_545  A
C635        C636   1.395       .  A
C635        F639   1.357       .  S
C636        H640   1.082       .  S
C641        C642   1.405       .  A
C641        C646   1.402       .  A
C641        H651   1.084   1_554  S
C642        C643   1.406       .  A
C642        C647   1.489       .  S
C643        C644   1.399       .  A
C643        F648   1.357       .  S
C644        C645   1.409       .  A
C644        H649   1.084       .  S
C645        C646   1.411       .  A
C646        F650   1.357   1_554  S
C647        C652   1.409       .  A
C647        C656   1.407   1_554  A
C652        C653   1.399       .  A
C652        F657   1.357       .  S
C653        C654   1.402       .  A
C653        H658   1.084       .  S
C654        C655   1.404   1_554  A
C655        C656   1.403       .  A
C655        F659   1.357       .  S
C656        H660   1.083       .  S
C661        C662   1.405       .  A
C661        C666   1.395       .  A
C661        H671   1.084       .  S
C662        C663   1.408   1_554  A
C662        C667   1.481       .  S
C663        C664   1.399       .  A
C663        F668   1.357       .  S
C664        C665   1.401   1_556  A
C664        H669   1.084       .  S
C665        C666   1.402       .  A
C666        F670   1.358       .  S
C667        C672   1.407       .  A
C667        C676   1.403       .  A
C672        C673   1.397       .  A
C672        F677   1.358   1_554  S
C673        C674   1.404       .  A
C673        H678   1.083   1_554  S
C674        C675   1.409       .  A
C675        C676   1.398       .  A
C675        F679   1.358       .  S
C676        H680   1.083       .  S
C681        C682   1.406   1_565  A
C681        C686   1.399   1_565  A
C681        H691   1.083       .  S
C682        C683   1.408       .  A
C682        C687   1.485       .  S
C683        C684   1.396       .  A
C683        F688   1.358       .  S
C684        C685   1.403       .  A
C684        H689   1.084       .  S
C685        C686   1.406       .  A
C686        F690   1.357   1_545  S
C687        C692   1.407   1_545  A
C687        C696   1.406       .  A
C692        C693   1.397       .  A
C692        F697   1.358       .  S
C693        C694   1.406   1_565  A
C693        H698   1.083       .  S
C694        C695   1.405       .  A
C695        C696   1.397       .  A
C695        F699   1.357       .  S
C696        H700   1.083       .  S
C701        C702   1.406       .  A
C701        C706   1.402       .  A
C701        H711   1.083   1_545  S
C702        C703   1.405       .  A
C702        C707   1.482       .  S
C703        C704   1.392       .  A
C703        F708   1.358       .  S
C704        C705   1.407       .  A
C704        H709   1.083       .  S
C705        C706   1.410       .  A
C706        F710   1.357   1_545  S
C707        C712   1.406   1_545  A
C707        C716   1.407       .  A
C712        C713   1.396       .  A
C712        F717   1.358       .  S
C713        C714   1.403   1_565  A
C713        H718   1.082       .  S
C714        C715   1.403       .  A
C715        C716   1.398       .  A
C715        F719   1.357       .  S
C716        H720   1.082       .  S
C721        C722   1.407       .  A
C721        C726   1.402       .  A
C721        H731   1.083   1_556  S
C722        C723   1.405       .  A
C722        C727   1.483       .  S
C723        C724   1.389       .  A
C723        F728   1.358       .  S
C724        C725   1.407       .  A
C724        H729   1.083       .  S
C725        C726   1.408       .  A
C726        F730   1.357   1_556  S
C727        C732   1.407   1_556  A
C727        C736   1.407       .  A
C732        C733   1.395       .  A
C732        F737   1.357       .  S
C733        C734   1.403   1_554  A
C733        H738   1.082       .  S
C734        C735   1.405       .  A
C735        C736   1.397       .  A
C735        F739   1.357       .  S
C736        H740   1.082       .  S
C741        C742   1.408       .  A
C741        C746   1.399       .  A
C741        H751   1.082       .  S
C742        C743   1.409   1_556  A
C742        C747   1.489       .  S
C743        C744   1.399       .  A
C743        F748   1.357       .  S
C744        C745   1.402       .  A
C744        H749   1.083       .  S
C745        C746   1.402   1_554  A
C746        F750   1.357       .  S
C747        C752   1.410   1_556  A
C747        C756   1.406       .  A
C752        C753   1.398   1_554  A
C752        F757   1.357       .  S
C753        C754   1.404       .  A
C753        H758   1.084   1_556  S
C754        C755   1.408       .  A
C755        C756   1.399       .  A
C755        F759   1.358       .  S
C756        H760   1.084       .  S
C761        C762   1.405       .  A
C761        C766   1.400       .  A
C761        H771   1.084       .  S
C762        C763   1.409       .  A
C762        C767   1.487       .  S
C763        C764   1.397       .  A
C763        F768   1.358       .  S
C764        C765   1.403       .  A
C764        H769   1.083       .  S
C765        C766   1.408       .  A
C766        F770   1.358       .  S
C767        C772   1.410       .  A
C767        C776   1.401       .  A
C772        C773   1.406       .  A
C772        F777   1.357       .  S
C773        C774   1.407       .  A
C773        H778   1.084       .  S
C774        C775   1.413       .  A
C775        C776   1.390       .  A
C775        F779   1.358       .  S
C776        H780   1.085       .  S
C781        C782   1.407       .  A
C781        C786   1.401       .  A
C781        H791   1.083       .  S
C782        C783   1.408   1_565  A
C782        C787   1.490       .  S
C783        C784   1.396       .  A
C783        F788   1.357       .  S
C784        C785   1.405   1_545  A
C784        H789   1.083       .  S
C785        C786   1.407       .  A
C786        F790   1.357       .  S
C787        C792   1.408       .  A
C787        C796   1.407   1_565  A
C792        C793   1.399       .  A
C792        F797   1.358       .  S
C793        C794   1.405       .  A
C793        H798   1.084       .  S
C794        C795   1.405       .  A
C795        C796   1.400   1_565  A
C795        F799   1.357   1_565  S
C796        H800   1.084       .  S
C801        C802   1.403       .  A
C801        C806   1.396       .  A
C801        H811   1.082       .  S
C802        C803   1.408       .  A
C802        C807   1.477       .  S
C803        C804   1.397       .  A
C803        F808   1.358       .  S
C804        C805   1.401       .  A
C804        H809   1.082       .  S
C805        C806   1.405       .  A
C806        F810   1.357       .  S
C807        C812   1.405       .  A
C807        C816   1.401       .  A
C812        C813   1.400       .  A
C812        F817   1.357       .  S
C813        C814   1.407       .  A
C813        H818   1.083       .  S
C814        C815   1.411       .  A
C815        C816   1.392       .  A
C815        F819   1.358       .  S
C816        H820   1.083       .  S
C821        C822   1.409   1_545  A
C821        C826   1.405       .  A
C821        H831   1.083       .  S
C822        C823   1.407       .  A
C822        C827   1.489       .  S
C823        C824   1.390       .  A
C823        F828   1.358       .  S
C824        C825   1.405       .  A
C824        H829   1.083       .  S
C825        C826   1.408   1_565  A
C826        F830   1.357       .  S
C827        C832   1.408   1_565  A
C827        C836   1.408       .  A
C832        C833   1.397       .  A
C832        F837   1.357       .  S
C833        C834   1.405       .  A
C833        H838   1.083       .  S
C834        C835   1.405   1_545  A
C835        C836   1.397       .  A
C835        F839   1.357       .  S
C836        H840   1.082       .  S
C841        C842   1.404       .  A
C841        C846   1.398       .  A
C841        H851   1.085       .  S
C842        C843   1.408       .  A
C842        C847   1.485       .  S
C843        C844   1.400       .  A
C843        F848   1.357       .  S
C844        C845   1.405       .  A
C844        H849   1.084       .  S
C845        C846   1.408       .  A
C846        F850   1.358       .  S
C847        C852   1.408       .  A
C847        C856   1.406       .  A
C852        C853   1.399       .  A
C852        F857   1.357       .  S
C853        C854   1.403       .  A
C853        H858   1.082       .  S
C854        C855   1.405       .  A
C855        C856   1.400       .  A
C855        F859   1.357       .  S
C856        H860   1.082       .  S
C861        C862   1.407       .  A
C861        C866   1.400       .  A
C861        H871   1.085       .  S
C862        C863   1.408       .  A
C862        C867   1.488       .  S
C863        C864   1.396       .  A
C863        F868   1.358       .  S
C864        C865   1.404       .  A
C864        H869   1.085       .  S
C865        C866   1.405       .  A
C866        F870   1.357       .  S
C867        C872   1.409       .  A
C867        C876   1.407       .  A
C872        C873   1.398       .  A
C872        F877   1.357       .  S
C873        C874   1.403       .  A
C873        H878   1.084       .  S
C874        C875   1.405       .  A
C875        C876   1.399       .  A
C875        F879   1.357       .  S
C876        H880   1.084       .  S
C881        C882   1.404       .  A
C881        C886   1.400       .  A
C881        H891   1.084       .  S
C882        C883   1.406       .  A
C882        C887   1.486       .  S
C883        C884   1.400       .  A
C883        F888   1.358       .  S
C884        C885   1.408       .  A
C884        H889   1.083       .  S
C885        C886   1.411       .  A
C886        F890   1.357       .  S
C887        C892   1.409       .  A
C887        C896   1.406       .  A
C892        C893   1.399       .  A
C892        F897   1.357       .  S
C893        C894   1.401       .  A
C893        H898   1.084       .  S
C894        C895   1.403       .  A
C895        C896   1.401       .  A
C895        F899   1.357       .  S
C896        H900   1.084       .  S
C901        C902   1.408       .  A
C901        C906   1.398       .  A
C901        H911   1.082       .  S
C902        C903   1.411       .  A
C902        C907   1.492       .  S
C903        C904   1.402       .  A
C903        F908   1.357       .  S
C904        C905   1.402       .  A
C904        H909   1.083       .  S
C905        C906   1.402       .  A
C906        F910   1.357       .  S
C907        C912   1.410       .  A
C907        C916   1.406       .  A
C912        C913   1.400       .  A
C912        F917   1.357       .  S
C913        C914   1.406       .  A
C913        H918   1.084       .  S
C914        C915   1.411       .  A
C915        C916   1.400       .  A
C915        F919   1.358       .  S
C916        H920   1.084       .  S
C921        C922   1.407       .  A
C921        C926   1.403       .  A
C921        H931   1.083   1_556  S
C922        C923   1.407       .  A
C922        C927   1.489       .  S
C923        C924   1.396       .  A
C923        F928   1.358       .  S
C924        C925   1.408       .  A
C924        H929   1.083       .  S
C925        C926   1.410       .  A
C926        F930   1.357   1_556  S
C927        C932   1.408   1_556  A
C927        C936   1.407       .  A
C932        C933   1.399       .  A
C932        F937   1.358       .  S
C933        C934   1.405   1_554  A
C933        H938   1.082       .  S
C934        C935   1.406       .  A
C935        C936   1.400       .  A
C935        F939   1.356       .  S
C936        H940   1.082       .  S
C941        C942   1.401       .  A
C941        C946   1.392       .  A
C941        H951   1.084       .  S
C942        C943   1.409       .  A
C942        C947   1.487       .  S
C943        C944   1.405       .  A
C943        F948   1.357       .  S
C944        C945   1.408       .  A
C944        H949   1.084       .  S
C945        C946   1.411       .  A
C946        F950   1.358       .  S
C947        C952   1.409       .  A
C947        C956   1.404       .  A
C952        C953   1.399       .  A
C952        F957   1.358       .  S
C953        C954   1.404       .  A
C953        H958   1.083       .  S
C954        C955   1.408       .  A
C955        C956   1.398       .  A
C955        F959   1.358       .  S
C956        H960   1.084       .  S
C961        C962   1.408       .  A
C961        C966   1.401       .  A
C961        H971   1.084       .  S
C962        C963   1.410       .  A
C962        C967   1.493       .  S
C963        C964   1.399       .  A
C963        F968   1.357       .  S
C964        C965   1.404       .  A
C964        H969   1.084       .  S
C965        C966   1.406       .  A
C966        F970   1.357       .  S
C967        C972   1.409       .  A
C967        C976   1.408       .  A
C972        C973   1.398       .  A
C972        F977   1.357       .  S
C973        C974   1.406       .  A
C973        H978   1.083       .  S
C974        C975   1.407       .  A
C975        C976   1.401       .  A
C975        F979   1.357       .  S
C976        H980   1.083       .  S
C981        C982   1.406   1_554  A
C981        C986   1.397       .  A
C981        H991   1.083       .  S
C982        C983   1.410       .  A
C982        C987   1.487       .  S
C983        C984   1.401       .  A
C983        F988   1.357       .  S
C984        C985   1.402       .  A
C984        H989   1.083       .  S
C985        C986   1.404   1_556  A
C986        F990   1.357       .  S
C987        C992   1.407       .  A
C987        C996   1.405       .  A
C992        C993   1.400       .  A
C992        F997   1.357       .  S
C993        C994   1.407       .  A
C993        H998   1.084       .  S
C994        C995   1.408       .  A
C995        C996   1.399       .  A
C995        F999   1.357       .  S
C996       H1000   1.085       .  S
C1001      C1002   1.406       .  A
C1001      C1006   1.398       .  A
C1001      H1011   1.082       .  S
C1002      C1003   1.407       .  A
C1002      C1007   1.483       .  S
C1003      C1004   1.399       .  A
C1003      F1008   1.357       .  S
C1004      C1005   1.402       .  A
C1004      H1009   1.082       .  S
C1005      C1006   1.403       .  A
C1006      F1010   1.358       .  S
C1007      C1012   1.406       .  A
C1007      C1016   1.402       .  A
C1012      C1013   1.400       .  A
C1012      F1017   1.357       .  S
C1013      C1014   1.407       .  A
C1013      H1018   1.084       .  S
C1014      C1015   1.412       .  A
C1015      C1016   1.398       .  A
C1015      F1019   1.358       .  S
C1016      H1020   1.084       .  S
C1021      C1022   1.409       .  A
C1021      C1026   1.399       .  A
C1021      H1031   1.082       .  S
C1022      C1023   1.410       .  A
C1022      C1027   1.492       .  S
C1023      C1024   1.400       .  A
C1023      F1028   1.357       .  S
C1024      C1025   1.403       .  A
C1024      H1029   1.082       .  S
C1025      C1026   1.403       .  A
C1026      F1030   1.357       .  S
C1027      C1032   1.410       .  A
C1027      C1036   1.405       .  A
C1032      C1033   1.403       .  A
C1032      F1037   1.357       .  S
C1033      C1034   1.407       .  A
C1033      H1038   1.085       .  S
C1034      C1035   1.409       .  A
C1035      C1036   1.396       .  A
C1035      F1039   1.357       .  S
C1036      H1040   1.085       .  S
C1041      C1042   1.406       .  A
C1041      C1046   1.400       .  A
C1041      H1051   1.081       .  S
C1042      C1043   1.410       .  A
C1042      C1047   1.492       .  S
C1043      C1044   1.399       .  A
C1043      F1048   1.358       .  S
C1044      C1045   1.405       .  A
C1044      H1049   1.080       .  S
C1045      C1046   1.409       .  A
C1046      F1050   1.358       .  S
C1047      C1052   1.411       .  A
C1047      C1056   1.403       .  A
C1052      C1053   1.406       .  A
C1052      F1057   1.357       .  S
C1053      C1054   1.408       .  A
C1053      H1058   1.083       .  S
C1054      C1055   1.411       .  A
C1055      C1056   1.394       .  A
C1055      F1059   1.358       .  S
C1056      H1060   1.083       .  S
C1061      C1062   1.405       .  A
C1061      C1066   1.398       .  A
C1061      H1071   1.084       .  S
C1062      C1063   1.407       .  A
C1062      C1067   1.483       .  S
C1063      C1064   1.400       .  A
C1063      F1068   1.357       .  S
C1064      C1065   1.403       .  A
C1064      H1069   1.084       .  S
C1065      C1066   1.404       .  A
C1066      F1070   1.357       .  S
C1067      C1072   1.406       .  A
C1067      C1076   1.404       .  A
C1072      C1073   1.397       .  A
C1072      F1077   1.358       .  S
C1073      C1074   1.405       .  A
C1073      H1078   1.083       .  S
C1074      C1075   1.409       .  A
C1075      C1076   1.401       .  A
C1075      F1079   1.357       .  S
C1076      H1080   1.083       .  S
C1081      C1082   1.406       .  A
C1081      C1086   1.397       .  A
C1081      H1091   1.082       .  S
C1082      C1083   1.410       .  A
C1082      C1087   1.489       .  S
C1083      C1084   1.400       .  A
C1083      F1088   1.358       .  S
C1084      C1085   1.404       .  A
C1084      H1089   1.082       .  S
C1085      C1086   1.406       .  A
C1086      F1090   1.357       .  S
C1087      C1092   1.411       .  A
C1087      C1096   1.406       .  A
C1092      C1093   1.401       .  A
C1092      F1097   1.357       .  S
C1093      C1094   1.403       .  A
C1093      H1098   1.083       .  S
C1094      C1095   1.405       .  A
C1095      C1096   1.395       .  A
C1095      F1099   1.358       .  S
C1096      H1100   1.082       .  S
C1101      C1102   1.407       .  A
C1101      C1106   1.398       .  A
C1101      H1111   1.082       .  S
C1102      C1103   1.410       .  A
C1102      C1107   1.492       .  S
C1103      C1104   1.397       .  A
C1103      F1108   1.357       .  S
C1104      C1105   1.405       .  A
C1104      H1109   1.082       .  S
C1105      C1106   1.406       .  A
C1106      F1110   1.357       .  S
C1107      C1112   1.410       .  A
C1107      C1116   1.408       .  A
C1112      C1113   1.397       .  A
C1112      F1117   1.358       .  S
C1113      C1114   1.404       .  A
C1113      H1118   1.083       .  S
C1114      C1115   1.407       .  A
C1115      C1116   1.400       .  A
C1115      F1119   1.357       .  S
C1116      H1120   1.083       .  S
C1121      C1122   1.405       .  A
C1121      C1126   1.398       .  A
C1121      H1131   1.084       .  S
C1122      C1123   1.404       .  A
C1122      C1127   1.478       .  S
C1123      C1124   1.397       .  A
C1123      F1128   1.357       .  S
C1124      C1125   1.405       .  A
C1124      H1129   1.084       .  S
C1125      C1126   1.404       .  A
C1126      F1130   1.357       .  S
C1127      C1132   1.404       .  A
C1127      C1136   1.404       .  A
C1132      C1133   1.394       .  A
C1132      F1137   1.358       .  S
C1133      C1134   1.406       .  A
C1133      H1138   1.084       .  S
C1134      C1135   1.409       .  A
C1135      C1136   1.402       .  A
C1135      F1139   1.357       .  S
C1136      H1140   1.084       .  S
C1141      C1142   1.405       .  A
C1141      C1146   1.396       .  A
C1141      H1151   1.082       .  S
C1142      C1143   1.411       .  A
C1142      C1147   1.489       .  S
C1143      C1144   1.401       .  A
C1143      F1148   1.357       .  S
C1144      C1145   1.403       .  A
C1144      H1149   1.082       .  S
C1145      C1146   1.405       .  A
C1146      F1150   1.358       .  S
C1147      C1152   1.409       .  A
C1147      C1156   1.403       .  A
C1152      C1153   1.402       .  A
C1152      F1157   1.357       .  S
C1153      C1154   1.406       .  A
C1153      H1158   1.084       .  S
C1154      C1155   1.412       .  A
C1155      C1156   1.396       .  A
C1155      F1159   1.358       .  S
C1156      H1160   1.084       .  S
C1161      C1162   1.405       .  A
C1161      C1166   1.402       .  A
C1161      H1171   1.083       .  S
C1162      C1163   1.406       .  A
C1162      C1167   1.485       .  S
C1163      C1164   1.400       .  A
C1163      F1168   1.357       .  S
C1164      C1165   1.406       .  A
C1164      H1169   1.083       .  S
C1165      C1166   1.406       .  A
C1166      F1170   1.357       .  S
C1167      C1172   1.405       .  A
C1167      C1176   1.405       .  A
C1172      C1173   1.398       .  A
C1172      F1177   1.358       .  S
C1173      C1174   1.407       .  A
C1173      H1178   1.084       .  S
C1174      C1175   1.410       .  A
C1175      C1176   1.405       .  A
C1175      F1179   1.357       .  S
C1176      H1180   1.084       .  S
C1181      C1182   1.406       .  A
C1181      C1186   1.410       .  A
C1181      H1191   1.084       .  S
C1182      C1183   1.401       .  A
C1182      C1187   1.486       .  S
C1183      C1184   1.398       .  A
C1183      F1188   1.358       .  S
C1184      C1185   1.412       .  A
C1184      H1189   1.083       .  S
C1185      C1186   1.413       .  A
C1186      F1190   1.357       .  S
C1187      C1192   1.405       .  A
C1187      C1196   1.403       .  A
C1192      C1193   1.404       .  A
C1192      F1197   1.357       .  S
C1193      C1194   1.409       .  A
C1193      H1198   1.082       .  S
C1194      C1195   1.409       .  A
C1195      C1196   1.403       .  A
C1195      F1199   1.357       .  S
C1196      H1200   1.082       .  S
C1201      C1202   1.405       .  A
C1201      C1206   1.397       .  A
C1201      H1211   1.084       .  S
C1202      C1203   1.411       .  A
C1202      C1207   1.491       .  S
C1203      C1204   1.402       .  A
C1203      F1208   1.358       .  S
C1204      C1205   1.406       .  A
C1204      H1209   1.083       .  S
C1205      C1206   1.407       .  A
C1206      F1210   1.357       .  S
C1207      C1212   1.411       .  A
C1207      C1216   1.404       .  A
C1212      C1213   1.403       .  A
C1212      F1217   1.357       .  S
C1213      C1214   1.405       .  A
C1213      H1218   1.085       .  S
C1214      C1215   1.410       .  A
C1215      C1216   1.395       .  A
C1215      F1219   1.358       .  S
C1216      H1220   1.084       .  S
C1221      C1222   1.407       .  A
C1221      C1226   1.399       .  A
C1221      H1231   1.082       .  S
C1222      C1223   1.408       .  A
C1222      C1227   1.490       .  S
C1223      C1224   1.399       .  A
C1223      F1228   1.357       .  S
C1224      C1225   1.405       .  A
C1224      H1229   1.083       .  S
C1225      C1226   1.405       .  A
C1226      F1230   1.357       .  S
C1227      C1232   1.407       .  A
C1227      C1236   1.408       .  A
C1232      C1233   1.394       .  A
C1232      F1237   1.358       .  S
C1233      C1234   1.407       .  A
C1233      H1238   1.083       .  S
C1234      C1235   1.410       .  A
C1235      C1236   1.404       .  A
C1235      F1239   1.357       .  S
C1236      H1240   1.083       .  S
