geometry optimzed in LAMMPS
_audit_creation_date              2020-12-01 
_audit_creation_method            'lammps2cif' 
_symmetry_space_group_name_H-M    'P1' 
_symmetry_Int_Tables_number       1 
_symmetry_cell_setting            triclinic 
loop_ 
_symmetry_equiv_pos_as_xyz 
  x,y,z 
_cell_length_a                    25.42176264 
_cell_length_b                    22.27982192356323 
_cell_length_c                    30.310808530818978 
_cell_angle_alpha                 89.99999646565233 
_cell_angle_beta                  90.00042117228976 
_cell_angle_gamma                 89.99736488740469 
loop_ 
_atom_site_label 
_atom_site_type_symbol 
_atom_site_fract_x 
_atom_site_fract_y 
_atom_site_fract_z 
_atom_site_charge 
C1          C  0.69224700  0.24991465  0.16667544     0.02800
C2          C  0.84273652  0.49990690  0.16666895     0.02800
C3          C  0.34273637  0.24990642  0.16667318     0.02800
C4          C  0.19224716  0.49991436  0.16667116     0.02800
O5          O  0.96176953  0.45001788  0.04692083    -0.67700
O6          O  0.07322158  0.45002274  0.28641908    -0.68700
O7          O  0.07322097  0.45002278  0.04692206    -0.57300
O8          O  0.96177046  0.45001785  0.28641775    -0.65700
O9          O  0.96176301  0.04980121  0.28641774    -0.65300
O10         O  0.07321375  0.04980615  0.04692213    -0.56500
O11         O  0.07321426  0.04980635  0.28641897    -0.69000
O12         O  0.96176220  0.04980124  0.04692102    -0.67800
Cu13       Cu  0.01749592  0.44649784  0.33333659     1.04600
Cu14       Cu  0.01748798  0.05332643  0.00000334     1.04300
C15         C  0.94461872  0.49990876  0.06179671     0.98500
C16         C  0.09036492  0.49991514  0.27154319     0.97600
C17         C  0.09036429  0.49991516  0.06179822     0.89800
C18         C  0.94461986  0.49990876  0.27154156     0.96100
O19         O  0.46176945  0.20001666  0.04692533    -0.67700
O20         O  0.57322144  0.20002208  0.28642346    -0.68700
O21         O  0.57322062  0.20002211  0.04692641    -0.57300
O22         O  0.46177002  0.20001664  0.28642232    -0.65700
O23         O  0.46176242  0.29980001  0.28642232    -0.65300
O24         O  0.57321305  0.29980549  0.04692658    -0.56500
O25         O  0.57321385  0.29980545  0.28642345    -0.69600
O26         O  0.46176194  0.29980004  0.04692533    -0.67800
Cu27       Cu  0.51749560  0.19649683  0.00000764     1.04600
Cu28       Cu  0.51748760  0.30332535  0.00000767     1.04300
C29         C  0.44461870  0.24990756  0.06180122     0.98500
C30         C  0.59036480  0.24991455  0.27154765     0.97600
C31         C  0.59036366  0.24991455  0.06180272     0.89800
C32         C  0.44461928  0.24990752  0.27154617     0.96100
C33         C  0.12863171  0.49991655  0.23678790    -0.08000
C34         C  0.15862656  0.49991632  0.20595678    -0.09600
C35         C  0.15862624  0.49991632  0.12738532    -0.08000
C36         C  0.12863117  0.49991657  0.09655395    -0.09600
C37         C  0.22535348  0.44601115  0.16667134    -0.13300
C38         C  0.25201651  0.40121340  0.16667186     0.10800
C39         C  0.28296554  0.34860618  0.16667253     0.12700
C40         C  0.30962894  0.30380873  0.16667294    -0.14100
C41         C  0.30963026  0.19600652  0.16667294    -0.13300
C42         C  0.28296710  0.15121173  0.16667253     0.10800
C43         C  0.25201778  0.09860798  0.16667186     0.12700
C44         C  0.22535424  0.05381351  0.16667135    -0.14100
C45         C  0.37635728  0.24990548  0.20595906    -0.08000
C46         C  0.40635246  0.24990586  0.23679035    -0.09600
C47         C  0.40635193  0.24990589  0.09655654    -0.08000
C48         C  0.37635704  0.24990548  0.12738764    -0.09600
C49         C  0.90635327  0.49990700  0.23678565    -0.08000
C50         C  0.87635812  0.49990624  0.20595436    -0.09600
C51         C  0.87635658  0.49990624  0.12738291    -0.08000
C52         C  0.90635161  0.49990696  0.09655186    -0.09600
C53         C  0.72535357  0.19601165  0.16667481    -0.13300
C54         C  0.75201641  0.15121375  0.16667329     0.10800
C55         C  0.78296528  0.09860643  0.16667117     0.12700
C56         C  0.80962873  0.05380901  0.16666962    -0.14100
C57         C  0.72535402  0.30381393  0.16667481    -0.13300
C58         C  0.75201784  0.34860825  0.16667329     0.10800
C59         C  0.78296753  0.40121186  0.16667117     0.12700
C60         C  0.80963070  0.44600668  0.16666962    -0.14100
C61         C  0.65862701  0.24991624  0.20596149    -0.08000
C62         C  0.62863195  0.24991619  0.23679253    -0.09600
C63         C  0.65862534  0.24991624  0.12739004    -0.08000
C64         C  0.62863019  0.24991613  0.09655873    -0.09600
C65         C  0.69224698  0.24991459  0.50000874     0.02800
C66         C  0.84273653  0.49990685  0.50000226     0.02800
C67         C  0.34273632  0.24990650  0.50000655     0.02800
C68         C  0.19224714  0.49991442  0.50000451     0.02800
O69         O  0.96176966  0.45001786  0.38025423    -0.67700
O70         O  0.07322147  0.45002287  0.61975239    -0.68700
O71         O  0.07322096  0.45002275  0.38025535    -0.57300
O72         O  0.96177029  0.45001780  0.61975132    -0.65700
O73         O  0.96176287  0.04980118  0.61975127    -0.65300
O74         O  0.07321384  0.04980638  0.38025536    -0.56500
O75         O  0.07321429  0.04980637  0.61975237    -0.69000
O76         O  0.96176230  0.04980119  0.38025427    -0.67800
Cu77       Cu  0.01749596  0.44649787  0.66667005     1.04600
Cu78       Cu  0.01748810  0.05332643  0.33333658     1.04300
C79         C  0.94461875  0.49990875  0.39513002     0.98500
C80         C  0.09036486  0.49991523  0.60487649     0.97600
C81         C  0.09036431  0.49991512  0.39513152     0.89800
C82         C  0.94461978  0.49990871  0.60487505     0.96100
O83         O  0.46176935  0.20001662  0.38025867    -0.67700
O84         O  0.57322149  0.20002205  0.61975687    -0.68700
O85         O  0.57322067  0.20002206  0.38025992    -0.57300
O86         O  0.46176987  0.20001670  0.61975559    -0.65700
O87         O  0.46176238  0.29980008  0.61975560    -0.65300
O88         O  0.57321309  0.29980545  0.38025994    -0.56500
O89         O  0.57321401  0.29980541  0.61975686    -0.69600
O90         O  0.46176175  0.29980001  0.38025866    -0.67800
Cu91       Cu  0.51749567  0.19649680  0.33334111     1.04600
Cu92       Cu  0.51748749  0.30332533  0.33334111     1.04300
C93         C  0.44461848  0.24990751  0.39513448     0.98500
C94         C  0.59036491  0.24991451  0.60488108     0.97600
C95         C  0.59036371  0.24991454  0.39513613     0.89800
C96         C  0.44461915  0.24990761  0.60487947     0.96100
C97         C  0.12863154  0.49991654  0.57012113    -0.08000
C98         C  0.15862640  0.49991630  0.53929001    -0.09600
C99         C  0.15862631  0.49991630  0.46071861    -0.08000
C100        C  0.12863108  0.49991648  0.42988735    -0.09600
C101        C  0.22535352  0.44601128  0.50000478    -0.13300
C102        C  0.25201638  0.40121342  0.50000516     0.10800
C103        C  0.28296531  0.34860613  0.50000584     0.12700
C104        C  0.30962879  0.30380874  0.50000637    -0.14100
C105        C  0.30963030  0.19600661  0.50000637    -0.13300
C106        C  0.28296724  0.15121175  0.50000584     0.10800
C107        C  0.25201798  0.09860797  0.50000516     0.12700
C108        C  0.22535445  0.05381347  0.50000476    -0.14100
C109        C  0.37635725  0.24990552  0.53929237    -0.08000
C110        C  0.40635238  0.24990593  0.57012369    -0.09600
C111        C  0.40635168  0.24990584  0.42988976    -0.08000
C112        C  0.37635686  0.24990552  0.46072092    -0.09600
C113        C  0.90635331  0.49990700  0.57011899    -0.08000
C114        C  0.87635812  0.49990618  0.53928770    -0.09600
C115        C  0.87635660  0.49990618  0.46071624    -0.08000
C116        C  0.90635163  0.49990698  0.42988517    -0.09600
C117        C  0.72535349  0.19601155  0.50000807    -0.13300
C118        C  0.75201646  0.15121375  0.50000653     0.10800
C119        C  0.78296542  0.09860648  0.50000441     0.12700
C120        C  0.80962888  0.05380907  0.50000289    -0.14100
C121        C  0.72535409  0.30381382  0.50000807    -0.13300
C122        C  0.75201790  0.34860815  0.50000653     0.10800
C123        C  0.78296740  0.40121189  0.50000440     0.12700
C124        C  0.80963056  0.44600672  0.50000287    -0.14100
C125        C  0.65862697  0.24991624  0.53929480    -0.08000
C126        C  0.62863200  0.24991615  0.57012590    -0.09600
C127        C  0.65862538  0.24991625  0.46072335    -0.08000
C128        C  0.62863020  0.24991618  0.42989209    -0.09600
C129        C  0.69224696  0.24991472  0.83334202     0.02800
C130        C  0.84273653  0.49990705  0.83333571     0.02800
C131        C  0.34273631  0.24990644  0.83333991     0.02800
C132        C  0.19224725  0.49991448  0.83333783     0.02800
O133        O  0.96176964  0.45001780  0.71358764    -0.67700
O134        O  0.07322156  0.45002299  0.95308582    -0.68700
O135        O  0.07322117  0.45002300  0.71358866    -0.57300
O136        O  0.96177038  0.45001781  0.95308453    -0.65700
O137        O  0.96176293  0.04980118  0.95308455    -0.65300
O138        O  0.07321361  0.04980637  0.71358886    -0.56500
O139        O  0.07321410  0.04980635  0.95308562    -0.69000
O140        O  0.96176209  0.04980116  0.71358764    -0.67800
Cu141      Cu  0.01749584  0.44649789  0.00000332     1.04600
Cu142      Cu  0.01748794  0.05332641  0.66667007     1.04300
C143        C  0.94461874  0.49990871  0.72846341     0.98500
C144        C  0.09036492  0.49991537  0.93820988     0.97600
C145        C  0.09036446  0.49991539  0.72846483     0.89800
C146        C  0.94461978  0.49990872  0.93820836     0.96100
O147        O  0.46176935  0.20001669  0.71359193    -0.67700
O148        O  0.57322140  0.20002203  0.95309010    -0.68700
O149        O  0.57322048  0.20002202  0.71359320    -0.57300
O150        O  0.46176996  0.20001668  0.95308889    -0.65700
O151        O  0.46176248  0.29980006  0.95308889    -0.65300
O152        O  0.57321300  0.29980542  0.71359321    -0.56500
O153        O  0.57321394  0.29980540  0.95309010    -0.69600
O154        O  0.46176186  0.29980007  0.71359192    -0.67800
Cu155      Cu  0.51749555  0.19649679  0.66667438     1.04600
Cu156      Cu  0.51748756  0.30332532  0.66667438     1.04300
C157        C  0.44461861  0.24990760  0.72846780     0.98500
C158        C  0.59036487  0.24991449  0.93821434     0.97600
C159        C  0.59036359  0.24991450  0.72846939     0.89800
C160        C  0.44461922  0.24990759  0.93821281     0.96100
C161        C  0.12863166  0.49991673  0.90345451    -0.08000
C162        C  0.15862657  0.49991640  0.87262342    -0.09600
C163        C  0.15862632  0.49991641  0.79405198    -0.08000
C164        C  0.12863123  0.49991675  0.76322063    -0.09600
C165        C  0.22535364  0.44601132  0.83333802    -0.13300
C166        C  0.25201652  0.40121345  0.83333839     0.10800
C167        C  0.28296545  0.34860616  0.83333908     0.12700
C168        C  0.30962889  0.30380875  0.83333967    -0.14100
C169        C  0.30963016  0.19600663  0.83333967    -0.13300
C170        C  0.28296710  0.15121173  0.83333908     0.10800
C171        C  0.25201795  0.09860788  0.83333839     0.12700
C172        C  0.22535429  0.05381345  0.83333802    -0.14100
C173        C  0.37635720  0.24990545  0.87262580    -0.08000
C174        C  0.40635233  0.24990589  0.90345710    -0.09600
C175        C  0.40635188  0.24990591  0.76322319    -0.08000
C176        C  0.37635698  0.24990545  0.79405430    -0.09600
C177        C  0.90635320  0.49990701  0.90345246    -0.08000
C178        C  0.87635808  0.49990645  0.87262116    -0.09600
C179        C  0.87635657  0.49990646  0.79404963    -0.08000
C180        C  0.90635153  0.49990706  0.76321850    -0.09600
C181        C  0.72535353  0.19601166  0.83334137    -0.13300
C182        C  0.75201633  0.15121373  0.83333996     0.10800
C183        C  0.78296522  0.09860638  0.83333779     0.12700
C184        C  0.80962875  0.05380903  0.83333636    -0.14100
C185        C  0.72535396  0.30381403  0.83334137    -0.13300
C186        C  0.75201777  0.34860843  0.83333996     0.10800
C187        C  0.78296748  0.40121201  0.83333779     0.12700
C188        C  0.80963066  0.44600688  0.83333635    -0.14100
C189        C  0.65862701  0.24991626  0.87262813    -0.08000
C190        C  0.62863202  0.24991612  0.90345924    -0.09600
C191        C  0.65862531  0.24991627  0.79405661    -0.08000
C192        C  0.62863017  0.24991613  0.76322531    -0.09600
C193        C  0.69224692  0.74991461  0.16667543     0.02800
C194        C  0.84273647  0.99990697  0.16666895     0.02800
C195        C  0.34273627  0.74990645  0.16667318     0.02800
C196        C  0.19224715  0.99991446  0.16667121     0.02800
O197        O  0.96176954  0.95001786  0.04692083    -0.67700
O198        O  0.07322147  0.95002296  0.28641909    -0.68700
O199        O  0.07322103  0.95002276  0.04692206    -0.57300
O200        O  0.96177036  0.95001781  0.28641776    -0.65700
O201        O  0.96176296  0.54980124  0.28641776    -0.65300
O202        O  0.07321363  0.54980615  0.04692216    -0.56500
O203        O  0.07321420  0.54980613  0.28641896    -0.69000
O204        O  0.96176214  0.54980125  0.04692098    -0.67800
Cu205      Cu  0.01749585  0.94649787  0.33333660     1.04600
Cu206      Cu  0.01748793  0.55332641  0.00000333     1.04300
C207        C  0.94461870  0.99990875  0.06179669     0.98500
C208        C  0.09036487  0.99991533  0.27154319     0.97600
C209        C  0.09036438  0.99991514  0.06179820     0.89800
C210        C  0.94461981  0.99990875  0.27154157     0.96100
O211        O  0.46176935  0.70001671  0.04692534    -0.67700
O212        O  0.57322140  0.70002203  0.28642346    -0.68700
O213        O  0.57322053  0.70002207  0.04692641    -0.57300
O214        O  0.46176992  0.70001669  0.28642233    -0.65700
O215        O  0.46176233  0.79980006  0.28642234    -0.65300
O216        O  0.57321296  0.79980544  0.04692658    -0.56500
O217        O  0.57321382  0.79980540  0.28642344    -0.69600
O218        O  0.46176185  0.79980009  0.04692532    -0.67800
Cu219      Cu  0.51749550  0.69649679  0.00000764     1.04600
Cu220      Cu  0.51748751  0.80332532  0.00000766     1.04300
C221        C  0.44461861  0.74990762  0.06180122     0.98500
C222        C  0.59036480  0.74991450  0.27154768     0.97600
C223        C  0.59036357  0.74991451  0.06180272     0.89800
C224        C  0.44461919  0.74990758  0.27154618     0.96100
C225        C  0.12863163  0.99991662  0.23678789    -0.08000
C226        C  0.15862651  0.99991638  0.20595679    -0.09600
C227        C  0.15862625  0.99991629  0.12738535    -0.08000
C228        C  0.12863119  0.99991651  0.09655397    -0.09600
C229        C  0.22535362  0.94601136  0.16667151    -0.13300
C230        C  0.25201648  0.90121349  0.16667193     0.10800
C231        C  0.28296541  0.84860618  0.16667253     0.12700
C232        C  0.30962885  0.80380877  0.16667293    -0.14100
C233        C  0.30963011  0.69600663  0.16667294    -0.13300
C234        C  0.28296705  0.65121174  0.16667253     0.10800
C235        C  0.25201792  0.59860786  0.16667186     0.12700
C236        C  0.22535434  0.55381337  0.16667134    -0.14100
C237        C  0.37635719  0.74990546  0.20595906    -0.08000
C238        C  0.40635237  0.74990589  0.23679036    -0.09600
C239        C  0.40635184  0.74990592  0.09655653    -0.08000
C240        C  0.37635695  0.74990547  0.12738763    -0.09600
C241        C  0.90635319  0.99990707  0.23678567    -0.08000
C242        C  0.87635806  0.99990643  0.20595437    -0.09600
C243        C  0.87635652  0.99990643  0.12738289    -0.08000
C244        C  0.90635154  0.99990701  0.09655183    -0.09600
C245        C  0.72535348  0.69601160  0.16667480    -0.13300
C246        C  0.75201632  0.65121369  0.16667329     0.10800
C247        C  0.78296522  0.59860635  0.16667117     0.12700
C248        C  0.80962874  0.55380896  0.16666962    -0.14100
C249        C  0.72535393  0.80381389  0.16667480    -0.13300
C250        C  0.75201776  0.84860822  0.16667329     0.10800
C251        C  0.78296746  0.90121185  0.16667117     0.12700
C252        C  0.80963065  0.94600669  0.16666962    -0.14100
C253        C  0.65862693  0.74991620  0.20596147    -0.08000
C254        C  0.62863192  0.74991615  0.23679255    -0.09600
C255        C  0.65862525  0.74991620  0.12739003    -0.08000
C256        C  0.62863010  0.74991609  0.09655873    -0.09600
C257        C  0.69224706  0.74991469  0.50000875     0.02800
C258        C  0.84273658  0.99990701  0.50000225     0.02800
C259        C  0.34273639  0.74990642  0.50000653     0.02800
C260        C  0.19224727  0.99991447  0.50000451     0.02800
O261        O  0.96176962  0.95001782  0.38025423    -0.67700
O262        O  0.07322145  0.95002299  0.61975232    -0.68700
O263        O  0.07322091  0.95002302  0.38025539    -0.57300
O264        O  0.96177027  0.95001779  0.61975132    -0.65700
O265        O  0.96176292  0.54980117  0.61975126    -0.65300
O266        O  0.07321378  0.54980613  0.38025538    -0.56500
O267        O  0.07321424  0.54980624  0.61975234    -0.69000
O268        O  0.96176219  0.54980122  0.38025425    -0.67800
Cu269      Cu  0.01749589  0.94649785  0.66667004     1.04600
Cu270      Cu  0.01748803  0.55332637  0.33333659     1.04300
C271        C  0.94461881  0.99990874  0.39513005     0.98500
C272        C  0.09036490  0.99991539  0.60487648     0.97600
C273        C  0.09036433  0.99991539  0.39513152     0.89800
C274        C  0.94461978  0.99990871  0.60487505     0.96100
O275        O  0.46176952  0.70001667  0.38025868    -0.67700
O276        O  0.57322153  0.70002200  0.61975687    -0.68700
O277        O  0.57322063  0.70002201  0.38025993    -0.57300
O278        O  0.46177006  0.70001666  0.61975558    -0.65700
O279        O  0.46176247  0.79980004  0.61975559    -0.65300
O280        O  0.57321305  0.79980540  0.38025994    -0.56500
O281        O  0.57321394  0.79980537  0.61975685    -0.69600
O282        O  0.46176193  0.79980007  0.38025867    -0.67800
Cu283      Cu  0.51749563  0.69649678  0.33334110     1.04600
Cu284      Cu  0.51748747  0.80332530  0.33334110     1.04300
C285        C  0.44461872  0.74990757  0.39513453     0.98500
C286        C  0.59036485  0.74991447  0.60488106     0.97600
C287        C  0.59036370  0.74991449  0.39513613     0.89800
C288        C  0.44461925  0.74990756  0.60487949     0.96100
C289        C  0.12863172  0.99991676  0.57012118    -0.08000
C290        C  0.15862661  0.99991640  0.53929007    -0.09600
C291        C  0.15862637  0.99991641  0.46071863    -0.08000
C292        C  0.12863119  0.99991676  0.42988733    -0.09600
C293        C  0.22535362  0.94601128  0.50000476    -0.13300
C294        C  0.25201657  0.90121347  0.50000516     0.10800
C295        C  0.28296549  0.84860616  0.50000584     0.12700
C296        C  0.30962887  0.80380868  0.50000636    -0.14100
C297        C  0.30963028  0.69600653  0.50000636    -0.13300
C298        C  0.28296715  0.65121171  0.50000584     0.10800
C299        C  0.25201788  0.59860792  0.50000517     0.12700
C300        C  0.22535431  0.55381343  0.50000478    -0.14100
C301        C  0.37635734  0.74990546  0.53929236    -0.08000
C302        C  0.40635241  0.74990587  0.57012374    -0.09600
C303        C  0.40635194  0.74990588  0.42988982    -0.08000
C304        C  0.37635703  0.74990546  0.46072091    -0.09600
C305        C  0.90635335  0.99990702  0.57011897    -0.08000
C306        C  0.87635824  0.99990641  0.53928765    -0.09600
C307        C  0.87635658  0.99990642  0.46071619    -0.08000
C308        C  0.90635163  0.99990705  0.42988515    -0.09600
C309        C  0.72535363  0.69601165  0.50000808    -0.13300
C310        C  0.75201646  0.65121372  0.50000653     0.10800
C311        C  0.78296536  0.59860638  0.50000440     0.12700
C312        C  0.80962884  0.55380897  0.50000287    -0.14100
C313        C  0.72535406  0.80381398  0.50000808    -0.13300
C314        C  0.75201782  0.84860842  0.50000653     0.10800
C315        C  0.78296741  0.90121205  0.50000441     0.12700
C316        C  0.80963069  0.94600686  0.50000289    -0.14100
C317        C  0.65862697  0.74991624  0.53929480    -0.08000
C318        C  0.62863193  0.74991612  0.57012586    -0.09600
C319        C  0.65862545  0.74991625  0.46072333    -0.08000
C320        C  0.62863030  0.74991614  0.42989205    -0.09600
C321        C  0.69224702  0.74991466  0.83334203     0.02800
C322        C  0.84273654  0.99990700  0.83333574     0.02800
C323        C  0.34273630  0.74990643  0.83333991     0.02800
C324        C  0.19224713  0.99991445  0.83333783     0.02800
O325        O  0.96176956  0.95001778  0.71358764    -0.67700
O326        O  0.07322157  0.95002296  0.95308583    -0.68700
O327        O  0.07322108  0.95002298  0.71358864    -0.57300
O328        O  0.96177042  0.95001778  0.95308456    -0.65700
O329        O  0.96176288  0.54980120  0.95308454    -0.65300
O330        O  0.07321376  0.54980638  0.71358882    -0.56500
O331        O  0.07321424  0.54980637  0.95308566    -0.69000
O332        O  0.96176224  0.54980117  0.71358767    -0.67800
Cu333      Cu  0.01749595  0.94649786  0.00000333     1.04600
Cu334      Cu  0.01748799  0.55332637  0.66667006     1.04300
C335        C  0.94461862  0.99990869  0.72846339     0.98500
C336        C  0.09036482  0.99991536  0.93820986     0.97600
C337        C  0.09036433  0.99991538  0.72846484     0.89800
C338        C  0.94461983  0.99990870  0.93820837     0.96100
O339        O  0.46176938  0.70001665  0.71359194    -0.67700
O340        O  0.57322133  0.70002199  0.95309008    -0.68700
O341        O  0.57322074  0.70002198  0.71359318    -0.57300
O342        O  0.46176986  0.70001664  0.95308889    -0.65700
O343        O  0.46176239  0.79980002  0.95308889    -0.65300
O344        O  0.57321315  0.79980537  0.71359319    -0.56500
O345        O  0.57321387  0.79980535  0.95309009    -0.69600
O346        O  0.46176179  0.79980003  0.71359192    -0.67800
Cu347      Cu  0.51749573  0.69649675  0.66667438     1.04600
Cu348      Cu  0.51748757  0.80332527  0.66667438     1.04300
C349        C  0.44461855  0.74990755  0.72846779     0.98500
C350        C  0.59036484  0.74991444  0.93821435     0.97600
C351        C  0.59036379  0.74991447  0.72846938     0.89800
C352        C  0.44461913  0.74990755  0.93821282     0.96100
C353        C  0.12863155  0.99991672  0.90345450    -0.08000
C354        C  0.15862646  0.99991636  0.87262342    -0.09600
C355        C  0.15862621  0.99991637  0.79405197    -0.08000
C356        C  0.12863112  0.99991673  0.76322063    -0.09600
C357        C  0.22535356  0.94601131  0.83333802    -0.13300
C358        C  0.25201643  0.90121343  0.83333839     0.10800
C359        C  0.28296535  0.84860611  0.83333908     0.12700
C360        C  0.30962879  0.80380868  0.83333967    -0.14100
C361        C  0.30963031  0.69600654  0.83333967    -0.13300
C362        C  0.28296730  0.65121164  0.83333908     0.10800
C363        C  0.25201804  0.59860788  0.83333839     0.12700
C364        C  0.22535444  0.55381343  0.83333802    -0.14100
C365        C  0.37635715  0.74990545  0.87262580    -0.08000
C366        C  0.40635225  0.74990586  0.90345711    -0.09600
C367        C  0.40635180  0.74990585  0.76322317    -0.08000
C368        C  0.37635694  0.74990545  0.79405430    -0.09600
C369        C  0.90635331  0.99990699  0.90345242    -0.08000
C370        C  0.87635813  0.99990640  0.87262116    -0.09600
C371        C  0.87635653  0.99990640  0.79404964    -0.08000
C372        C  0.90635144  0.99990701  0.76321849    -0.09600
C373        C  0.72535354  0.69601160  0.83334138    -0.13300
C374        C  0.75201647  0.65121381  0.83333996     0.10800
C375        C  0.78296540  0.59860652  0.83333779     0.12700
C376        C  0.80962881  0.55380911  0.83333635    -0.14100
C377        C  0.72535408  0.80381392  0.83334138    -0.13300
C378        C  0.75201776  0.84860840  0.83333996     0.10800
C379        C  0.78296742  0.90121202  0.83333779     0.12700
C380        C  0.80963065  0.94600684  0.83333636    -0.14100
C381        C  0.65862703  0.74991623  0.87262812    -0.08000
C382        C  0.62863210  0.74991608  0.90345929    -0.09600
C383        C  0.65862545  0.74991624  0.79405660    -0.08000
C384        C  0.62863028  0.74991611  0.76322533    -0.09600
loop_ 
_geom_bond_atom_site_label_1 
_geom_bond_atom_site_label_2 
_geom_bond_distance 
_geom_bond_site_symmetry_2 
_ccdc_geom_bond_type 
C1           C53   1.466       .  S
C1           C57   1.466       .  S
C1           C61   1.466       .  S
C1           C63   1.466       .  S
C2           C50   1.466       .  S
C2           C51   1.466       .  S
C2           C60   1.466       .  S
C2          C248   1.466       .  S
C3           C40   1.466       .  S
C3           C41   1.466       .  S
C3           C45   1.466       .  S
C3           C48   1.466       .  S
C4           C34   1.466       .  S
C4           C35   1.466       .  S
C4           C37   1.466       .  S
C4          C236   1.466       .  S
O5           C15   1.276       .  A
O5         Cu141   2.009   1_655  S
O6           C16   1.276       .  A
O6          Cu13   2.009       .  S
O7           C17   1.276       .  A
O7         Cu141   2.009       .  S
O8           C18   1.276       .  A
O8          Cu13   2.009   1_655  S
O9          C210   1.276   1_545  A
O9          Cu78   2.009   1_655  S
O10         C209   1.276   1_545  A
O10         Cu14   2.009       .  S
O11         C208   1.276   1_545  A
O11         Cu78   2.009       .  S
O12         C207   1.276   1_545  A
O12         Cu14   2.009   1_655  S
Cu13         O69   2.009   1_455  S
Cu13         O71   2.009       .  S
Cu13       Cu270   2.380       .  S
Cu14        O137   2.009   1_454  S
Cu14        O139   2.009   1_554  S
Cu14       Cu333   2.380   1_545  S
C15         O204   1.276       .  A
C15          C52   1.434       .  S
C16         O203   1.276       .  A
C16          C33   1.434       .  S
C17         O202   1.276       .  A
C17          C36   1.434       .  S
C18         O201   1.276       .  A
C18          C49   1.434       .  S
O19          C29   1.276       .  A
O19         Cu27   2.009       .  S
O20          C30   1.276       .  A
O20         Cu91   2.009       .  S
O21          C31   1.276       .  A
O21         Cu27   2.009       .  S
O22          C32   1.276       .  A
O22         Cu91   2.009       .  S
O23          C32   1.276       .  A
O23         Cu92   2.009       .  S
O24          C31   1.276       .  A
O24         Cu28   2.009       .  S
O25          C30   1.276       .  A
O25         Cu92   2.009       .  S
O26          C29   1.276       .  A
O26         Cu28   2.009       .  S
Cu27        O148   2.009   1_554  S
Cu27        O150   2.009   1_554  S
Cu27        Cu28   2.380       .  S
Cu28        O151   2.009   1_554  S
Cu28        O153   2.009   1_554  S
C29          C47   1.434       .  S
C30          C62   1.434       .  S
C31          C64   1.434       .  S
C32          C46   1.434       .  S
C33          C34   1.206       .  T
C35          C36   1.206       .  T
C37          C38   1.206       .  T
C38          C39   1.412       .  S
C39          C40   1.206       .  T
C41          C42   1.206       .  T
C42          C43   1.412       .  S
C43          C44   1.206       .  T
C44         C196   1.466   1_545  S
C45          C46   1.206       .  T
C47          C48   1.206       .  T
C49          C50   1.206       .  T
C51          C52   1.206       .  T
C53          C54   1.206       .  T
C54          C55   1.412       .  S
C55          C56   1.206       .  T
C56         C194   1.466   1_545  S
C57          C58   1.206       .  T
C58          C59   1.412       .  S
C59          C60   1.206       .  T
C61          C62   1.206       .  T
C63          C64   1.206       .  T
C65         C117   1.466       .  S
C65         C121   1.466       .  S
C65         C125   1.466       .  S
C65         C127   1.466       .  S
C66         C114   1.466       .  S
C66         C115   1.466       .  S
C66         C312   1.466       .  S
C66         C124   1.466       .  S
C67         C104   1.466       .  S
C67         C105   1.466       .  S
C67         C109   1.466       .  S
C67         C112   1.466       .  S
C68          C98   1.466       .  S
C68          C99   1.466       .  S
C68         C101   1.466       .  S
C68         C300   1.466       .  S
O69          C79   1.276       .  A
O70          C80   1.276       .  A
O70         Cu77   2.009       .  S
O71          C81   1.276       .  A
O72          C82   1.276       .  A
O72         Cu77   2.009   1_655  S
O73         C274   1.276   1_545  A
O73        Cu142   2.009   1_655  S
O74         C273   1.276   1_545  A
O74         Cu78   2.009       .  S
O75         C272   1.276   1_545  A
O75        Cu142   2.009       .  S
O76         C271   1.276   1_545  A
O76         Cu78   2.009   1_655  S
Cu77        O133   2.009   1_455  S
Cu77        O135   2.009       .  S
Cu77       Cu334   2.380       .  S
Cu78       Cu205   2.380   1_545  S
C79         O268   1.276       .  A
C79         C116   1.434       .  S
C80         O267   1.276       .  A
C80          C97   1.434       .  S
C81         O266   1.276       .  A
C81         C100   1.434       .  S
C82         O265   1.276       .  A
C82         C113   1.434       .  S
O83          C93   1.276       .  A
O83         Cu91   2.009       .  S
O84          C94   1.276       .  A
O84        Cu155   2.009       .  S
O85          C95   1.276       .  A
O85         Cu91   2.009       .  S
O86          C96   1.276       .  A
O86        Cu155   2.009       .  S
O87          C96   1.276       .  A
O87        Cu156   2.009       .  S
O88          C95   1.276       .  A
O88         Cu92   2.009       .  S
O89          C94   1.276       .  A
O89        Cu156   2.009       .  S
O90          C93   1.276       .  A
O90         Cu92   2.009       .  S
Cu91        Cu92   2.380       .  S
C93         C111   1.434       .  S
C94         C126   1.434       .  S
C95         C128   1.434       .  S
C96         C110   1.434       .  S
C97          C98   1.206       .  T
C99         C100   1.206       .  T
C101        C102   1.206       .  T
C102        C103   1.412       .  S
C103        C104   1.206       .  T
C105        C106   1.206       .  T
C106        C107   1.412       .  S
C107        C108   1.206       .  T
C108        C260   1.466   1_545  S
C109        C110   1.206       .  T
C111        C112   1.206       .  T
C113        C114   1.206       .  T
C115        C116   1.206       .  T
C117        C118   1.206       .  T
C118        C119   1.412       .  S
C119        C120   1.206       .  T
C120        C258   1.466   1_545  S
C121        C122   1.206       .  T
C122        C123   1.412       .  S
C123        C124   1.206       .  T
C125        C126   1.206       .  T
C127        C128   1.206       .  T
C129        C181   1.466       .  S
C129        C185   1.466       .  S
C129        C189   1.466       .  S
C129        C191   1.466       .  S
C130        C178   1.466       .  S
C130        C179   1.466       .  S
C130        C376   1.466       .  S
C130        C188   1.466       .  S
C131        C168   1.466       .  S
C131        C169   1.466       .  S
C131        C173   1.466       .  S
C131        C176   1.466       .  S
C132        C162   1.466       .  S
C132        C163   1.466       .  S
C132        C165   1.466       .  S
C132        C364   1.466       .  S
O133        C143   1.276       .  A
O134        C144   1.276       .  A
O134       Cu141   2.009   1_556  S
O135        C145   1.276       .  A
O136        C146   1.276       .  A
O136       Cu141   2.009   1_656  S
O137        C338   1.276   1_545  A
O138        C337   1.276   1_545  A
O138       Cu142   2.009       .  S
O139        C336   1.276   1_545  A
O140        C335   1.276   1_545  A
O140       Cu142   2.009   1_655  S
Cu141      Cu206   2.380       .  S
Cu142      Cu269   2.380   1_545  S
C143        O332   1.276       .  A
C143        C180   1.434       .  S
C144        O331   1.276       .  A
C144        C161   1.434       .  S
C145        O330   1.276       .  A
C145        C164   1.434       .  S
C146        O329   1.276       .  A
C146        C177   1.434       .  S
O147        C157   1.276       .  A
O147       Cu155   2.009       .  S
O148        C158   1.276       .  A
O149        C159   1.276       .  A
O149       Cu155   2.009       .  S
O150        C160   1.276       .  A
O151        C160   1.276       .  A
O152        C159   1.276       .  A
O152       Cu156   2.009       .  S
O153        C158   1.276       .  A
O154        C157   1.276       .  A
O154       Cu156   2.009       .  S
Cu155      Cu156   2.380       .  S
C157        C175   1.434       .  S
C158        C190   1.434       .  S
C159        C192   1.434       .  S
C160        C174   1.434       .  S
C161        C162   1.206       .  T
C163        C164   1.206       .  T
C165        C166   1.206       .  T
C166        C167   1.412       .  S
C167        C168   1.206       .  T
C169        C170   1.206       .  T
C170        C171   1.412       .  S
C171        C172   1.206       .  T
C172        C324   1.466   1_545  S
C173        C174   1.206       .  T
C175        C176   1.206       .  T
C177        C178   1.206       .  T
C179        C180   1.206       .  T
C181        C182   1.206       .  T
C182        C183   1.412       .  S
C183        C184   1.206       .  T
C184        C322   1.466   1_545  S
C185        C186   1.206       .  T
C186        C187   1.412       .  S
C187        C188   1.206       .  T
C189        C190   1.206       .  T
C191        C192   1.206       .  T
C193        C245   1.466       .  S
C193        C249   1.466       .  S
C193        C253   1.466       .  S
C193        C255   1.466       .  S
C194        C242   1.466       .  S
C194        C243   1.466       .  S
C194        C252   1.466       .  S
C195        C232   1.466       .  S
C195        C233   1.466       .  S
C195        C237   1.466       .  S
C195        C240   1.466       .  S
C196        C226   1.466       .  S
C196        C227   1.466       .  S
C196        C229   1.466       .  S
O197        C207   1.276       .  A
O197       Cu333   2.009   1_655  S
O198        C208   1.276       .  A
O198       Cu205   2.009       .  S
O199        C209   1.276       .  A
O199       Cu333   2.009       .  S
O200        C210   1.276       .  A
O200       Cu205   2.009   1_655  S
O201       Cu270   2.009   1_655  S
O202       Cu206   2.009       .  S
O203       Cu270   2.009       .  S
O204       Cu206   2.009   1_655  S
Cu205       O261   2.009   1_455  S
Cu205       O263   2.009       .  S
Cu206       O329   2.009   1_454  S
Cu206       O331   2.009   1_554  S
C207        C244   1.434       .  S
C208        C225   1.434       .  S
C209        C228   1.434       .  S
C210        C241   1.434       .  S
O211        C221   1.276       .  A
O211       Cu219   2.009       .  S
O212        C222   1.276       .  A
O212       Cu283   2.009       .  S
O213        C223   1.276       .  A
O213       Cu219   2.009       .  S
O214        C224   1.276       .  A
O214       Cu283   2.009       .  S
O215        C224   1.276       .  A
O215       Cu284   2.009       .  S
O216        C223   1.276       .  A
O216       Cu220   2.009       .  S
O217        C222   1.276       .  A
O217       Cu284   2.009       .  S
O218        C221   1.276       .  A
O218       Cu220   2.009       .  S
Cu219       O340   2.009   1_554  S
Cu219       O342   2.009   1_554  S
Cu219      Cu220   2.380       .  S
Cu220       O343   2.009   1_554  S
Cu220       O345   2.009   1_554  S
C221        C239   1.434       .  S
C222        C254   1.434       .  S
C223        C256   1.434       .  S
C224        C238   1.434       .  S
C225        C226   1.206       .  T
C227        C228   1.206       .  T
C229        C230   1.206       .  T
C230        C231   1.412       .  S
C231        C232   1.206       .  T
C233        C234   1.206       .  T
C234        C235   1.412       .  S
C235        C236   1.206       .  T
C237        C238   1.206       .  T
C239        C240   1.206       .  T
C241        C242   1.206       .  T
C243        C244   1.206       .  T
C245        C246   1.206       .  T
C246        C247   1.412       .  S
C247        C248   1.206       .  T
C249        C250   1.206       .  T
C250        C251   1.412       .  S
C251        C252   1.206       .  T
C253        C254   1.206       .  T
C255        C256   1.206       .  T
C257        C309   1.466       .  S
C257        C313   1.466       .  S
C257        C317   1.466       .  S
C257        C319   1.466       .  S
C258        C306   1.466       .  S
C258        C307   1.466       .  S
C258        C316   1.466       .  S
C259        C296   1.466       .  S
C259        C297   1.466       .  S
C259        C301   1.466       .  S
C259        C304   1.466       .  S
C260        C290   1.466       .  S
C260        C291   1.466       .  S
C260        C293   1.466       .  S
O261        C271   1.276       .  A
O262        C272   1.276       .  A
O262       Cu269   2.009       .  S
O263        C273   1.276       .  A
O264        C274   1.276       .  A
O264       Cu269   2.009   1_655  S
O265       Cu334   2.009   1_655  S
O266       Cu270   2.009       .  S
O267       Cu334   2.009       .  S
O268       Cu270   2.009   1_655  S
Cu269       O325   2.009   1_455  S
Cu269       O327   2.009       .  S
C271        C308   1.434       .  S
C272        C289   1.434       .  S
C273        C292   1.434       .  S
C274        C305   1.434       .  S
O275        C285   1.276       .  A
O275       Cu283   2.009       .  S
O276        C286   1.276       .  A
O276       Cu347   2.009       .  S
O277        C287   1.276       .  A
O277       Cu283   2.009       .  S
O278        C288   1.276       .  A
O278       Cu347   2.009       .  S
O279        C288   1.276       .  A
O279       Cu348   2.009       .  S
O280        C287   1.276       .  A
O280       Cu284   2.009       .  S
O281        C286   1.276       .  A
O281       Cu348   2.009       .  S
O282        C285   1.276       .  A
O282       Cu284   2.009       .  S
Cu283      Cu284   2.380       .  S
C285        C303   1.434       .  S
C286        C318   1.434       .  S
C287        C320   1.434       .  S
C288        C302   1.434       .  S
C289        C290   1.206       .  T
C291        C292   1.206       .  T
C293        C294   1.206       .  T
C294        C295   1.412       .  S
C295        C296   1.206       .  T
C297        C298   1.206       .  T
C298        C299   1.412       .  S
C299        C300   1.206       .  T
C301        C302   1.206       .  T
C303        C304   1.206       .  T
C305        C306   1.206       .  T
C307        C308   1.206       .  T
C309        C310   1.206       .  T
C310        C311   1.412       .  S
C311        C312   1.206       .  T
C313        C314   1.206       .  T
C314        C315   1.412       .  S
C315        C316   1.206       .  T
C317        C318   1.206       .  T
C319        C320   1.206       .  T
C321        C373   1.466       .  S
C321        C377   1.466       .  S
C321        C381   1.466       .  S
C321        C383   1.466       .  S
C322        C370   1.466       .  S
C322        C371   1.466       .  S
C322        C380   1.466       .  S
C323        C360   1.466       .  S
C323        C361   1.466       .  S
C323        C365   1.466       .  S
C323        C368   1.466       .  S
C324        C354   1.466       .  S
C324        C355   1.466       .  S
C324        C357   1.466       .  S
O325        C335   1.276       .  A
O326        C336   1.276       .  A
O326       Cu333   2.009   1_556  S
O327        C337   1.276       .  A
O328        C338   1.276       .  A
O328       Cu333   2.009   1_656  S
O330       Cu334   2.009       .  S
O332       Cu334   2.009   1_655  S
C335        C372   1.434       .  S
C336        C353   1.434       .  S
C337        C356   1.434       .  S
C338        C369   1.434       .  S
O339        C349   1.276       .  A
O339       Cu347   2.009       .  S
O340        C350   1.276       .  A
O341        C351   1.276       .  A
O341       Cu347   2.009       .  S
O342        C352   1.276       .  A
O343        C352   1.276       .  A
O344        C351   1.276       .  A
O344       Cu348   2.009       .  S
O345        C350   1.276       .  A
O346        C349   1.276       .  A
O346       Cu348   2.009       .  S
Cu347      Cu348   2.380       .  S
C349        C367   1.434       .  S
C350        C382   1.434       .  S
C351        C384   1.434       .  S
C352        C366   1.434       .  S
C353        C354   1.206       .  T
C355        C356   1.206       .  T
C357        C358   1.206       .  T
C358        C359   1.412       .  S
C359        C360   1.206       .  T
C361        C362   1.206       .  T
C362        C363   1.412       .  S
C363        C364   1.206       .  T
C365        C366   1.206       .  T
C367        C368   1.206       .  T
C369        C370   1.206       .  T
C371        C372   1.206       .  T
C373        C374   1.206       .  T
C374        C375   1.412       .  S
C375        C376   1.206       .  T
C377        C378   1.206       .  T
C378        C379   1.412       .  S
C379        C380   1.206       .  T
C381        C382   1.206       .  T
C383        C384   1.206       .  T
