geometry optimzed in LAMMPS
_audit_creation_date              2020-11-30 
_audit_creation_method            'lammps2cif' 
_symmetry_space_group_name_H-M    'P1' 
_symmetry_Int_Tables_number       1 
_symmetry_cell_setting            triclinic 
loop_ 
_symmetry_equiv_pos_as_xyz 
  x,y,z 
_cell_length_a                    27.60762131 
_cell_length_b                    28.92124337709959 
_cell_length_c                    33.31648228686639 
_cell_angle_alpha                 91.14746238230184 
_cell_angle_beta                  90.20052435957506 
_cell_angle_gamma                 89.78795667512249 
loop_ 
_atom_site_label 
_atom_site_type_symbol 
_atom_site_fract_x 
_atom_site_fract_y 
_atom_site_fract_z 
_atom_site_charge 
In1        In  0.95961754  0.24936993  0.02885130     1.36900
C2          C  0.01921190  0.17882849  0.01335175     0.76900
O3          O  0.02096276  0.29381587  0.01047498    -0.61500
O4          O  0.99275829  0.30462092  0.06906465    -0.52400
C5          C  0.89918974  0.29654508  0.48271404     0.69600
O6          O  0.92837882  0.26665957  0.46862341    -0.47300
C7          C  0.89990387  0.20086538  0.07321541     0.74300
O8          O  0.99356240  0.19744610  0.48657817    -0.59200
O9          O  0.92870612  0.23016873  0.08877771    -0.49200
O10         O  0.01388555  0.19645133  0.04800029    -0.55600
C11         C  0.02348352  0.31635175  0.04310865     0.84500
O12         O  0.90021681  0.30122754  0.02049195    -0.57500
O13         O  0.90011716  0.19895552  0.03535901    -0.60800
In14       In  0.94750127  0.24578647  0.30431334     1.36900
C15         C  0.01183185  0.31478940  0.31263069     0.76900
O16         O  0.00054268  0.18880154  0.31719601    -0.61500
O17         O  0.96965199  0.19046937  0.25901606    -0.52400
C18         C  0.89395684  0.20799761  0.36154823     0.69600
O19         O  0.93661977  0.22185670  0.36773983    -0.47300
C20         C  0.88546695  0.28814634  0.25628047     0.74300
O21         O  0.98262614  0.30400854  0.33988625    -0.59200
O22         O  0.90954225  0.25290934  0.24515224    -0.49200
O23         O  0.00786095  0.29029236  0.28116677    -0.55600
C24         C  0.99812859  0.17036032  0.28273805     0.84500
O25         O  0.87797910  0.21548269  0.32680494    -0.57500
O26         O  0.89167615  0.30023272  0.29258355    -0.60800
In27       In  0.73834843  0.46883700  0.09975816     1.36900
C28         C  0.80873679  0.52885265  0.08393024     0.76900
O29         O  0.68503467  0.52084257  0.07776526    -0.61500
O30         O  0.68813332  0.51002090  0.14036088    -0.52400
C31         C  0.69027411  0.40970138  0.05285147     0.69600
O32         O  0.72623308  0.43233385  0.04067453    -0.47300
C33         C  0.78364109  0.40934205  0.14762266     0.74300
O34         O  0.78962510  0.50325812  0.05709617    -0.59200
O35         O  0.74948821  0.43533813  0.15968394    -0.49200
O36         O  0.79275029  0.52201919  0.11863979    -0.55600
C37         C  0.66954858  0.53251399  0.11198696     0.84500
O38         O  0.68002743  0.41634846  0.08940719    -0.57500
O39         O  0.79382079  0.41392659  0.11107126    -0.60800
In40       In  0.74000358  0.48548966  0.34286753     1.36900
C41         C  0.81228382  0.54276493  0.32784532     0.76900
O42         O  0.68487327  0.53761984  0.32320076    -0.61500
O43         O  0.69053970  0.52444206  0.38525147    -0.52400
C44         C  0.68767277  0.42689623  0.29907587     0.69600
O45         O  0.71738148  0.45445930  0.28351177    -0.47300
C46         C  0.79060792  0.42521163  0.38580391     0.74300
O47         O  0.79405704  0.51633799  0.30117894    -0.59200
O48         O  0.75779367  0.45072599  0.40093141    -0.49200
O49         O  0.79271843  0.54000245  0.36185311    -0.55600
C50         C  0.66939704  0.54682715  0.35801496     0.84500
O51         O  0.68603143  0.42867452  0.33692797    -0.57500
O52         O  0.79661636  0.43035947  0.34865061    -0.60800
In53       In  0.72937720  0.02096423  0.20889548     1.36900
C54         C  0.65933458  0.96011109  0.19239344     0.76900
O55         O  0.78640549  0.97027042  0.19016751    -0.61500
O56         O  0.77857369  0.98556719  0.25239310    -0.52400
C57         C  0.77719415  0.08187665  0.16575087     0.69600
O58         O  0.74808803  0.05302102  0.15005947    -0.47300
C59         C  0.67965857  0.07821398  0.25644336     0.74300
O60         O  0.67868014  0.98419540  0.16559195    -0.59200
O61         O  0.71606026  0.05561473  0.26826395    -0.49200
O62         O  0.67625118  0.96759587  0.22707897    -0.55600
C63         C  0.80102763  0.96317994  0.22534378     0.84500
O64         O  0.78134729  0.07941259  0.20330583    -0.57500
O65         O  0.66949214  0.07197991  0.21972157    -0.60800
In66       In  0.73083847  0.01932213  0.49297361     1.36900
C67         C  0.66189143  0.96075214  0.46950321     0.76900
O68         O  0.78100069  0.96452147  0.47033090    -0.61500
O69         O  0.78166347  0.97990450  0.03295065    -0.52400
C70         C  0.78299065  0.08240670  0.45587208     0.69600
O71         O  0.74676736  0.06296653  0.43967753    -0.47300
C72         C  0.67631904  0.07365130  0.03926309     0.74300
O73         O  0.68380269  0.98630242  0.44515666    -0.59200
O74         O  0.70840669  0.04742198  0.05388670    -0.49200
O75         O  0.67486786  0.96619153  0.50562033    -0.55600
C76         C  0.79829594  0.95524325  0.50433148     0.84500
O77         O  0.79216567  0.06982890  0.49111717    -0.57500
O78         O  0.67420910  0.07298858  0.50153582    -0.60800
In79       In  0.49428747  0.25267955  0.17254755     1.36900
C80         C  0.43635860  0.32204959  0.15402536     0.76900
O81         O  0.43635996  0.20445841  0.15224464    -0.61500
O82         O  0.45070581  0.20978462  0.21485743    -0.52400
C83         C  0.55359774  0.19713515  0.13227208     0.69600
O84         O  0.52686063  0.22657168  0.11534546    -0.47300
C85         C  0.55935702  0.30245842  0.21267070     0.74300
O86         O  0.46408313  0.30272142  0.12856975    -0.59200
O87         O  0.53276181  0.27315667  0.22973054    -0.49200
O88         O  0.43859042  0.30552540  0.18875273    -0.55600
C89         C  0.42556544  0.19145347  0.18696552     0.84500
O90         O  0.54974294  0.19612666  0.16999860    -0.57500
O91         O  0.55259094  0.30547944  0.17535645    -0.60800
In92       In  0.50446397  0.24579097  0.40819810     1.36900
C93         C  0.43696613  0.18542714  0.42829858     0.76900
O94         O  0.44905017  0.29998542  0.42313850    -0.61500
O95         O  0.47912876  0.29930206  0.36478914    -0.52400
C96         C  0.56939671  0.29014569  0.45373579     0.69600
O97         O  0.54237521  0.25885427  0.46697832    -0.47300
C98         C  0.55753280  0.19095945  0.36054994     0.74300
O99         O  0.46631471  0.20226965  0.45378124    -0.59200
O100        O  0.52754408  0.21996508  0.34733481    -0.49200
O101        O  0.44257594  0.19972720  0.39321093    -0.55600
C102        C  0.44986864  0.31825026  0.38907976     0.84500
O103        O  0.56386299  0.29743015  0.41678925    -0.57500
O104        O  0.56110809  0.19082746  0.39827773    -0.60800
In105      In  0.23093155  0.52270834  0.08756171     1.36900
C106        C  0.29666088  0.46288410  0.11362059     0.76900
O107        O  0.16971280  0.47752636  0.10550464    -0.61500
O108        O  0.18600037  0.48183182  0.04333408    -0.52400
C109        C  0.18284918  0.58941031  0.12494478     0.69600
O110        O  0.21764293  0.56839202  0.14141125    -0.47300
C111        C  0.28398731  0.57696542  0.04222522     0.74300
O112        O  0.26971658  0.48588716  0.13717482    -0.59200
O113        O  0.25220885  0.55015221  0.02740488    -0.49200
O114        O  0.28993584  0.47085474  0.07700161    -0.55600
C115        C  0.15959224  0.46470713  0.07011755     0.84500
O116        O  0.17303560  0.57606740  0.08963095    -0.57500
O117        O  0.28737889  0.57603831  0.07991800    -0.60800
In118      In  0.23419041  0.51584627  0.33695230     1.36900
C119        C  0.16091716  0.45626366  0.32547669     0.76900
O120        O  0.29100751  0.46353339  0.32047187    -0.61500
O121        O  0.28655627  0.48559887  0.38116428    -0.52400
C122        C  0.28104151  0.57298708  0.28934549     0.69600
O123        O  0.25267312  0.54215446  0.27572200    -0.47300
C124        C  0.18793273  0.57779589  0.38191802     0.74300
O125        O  0.17908133  0.47893833  0.29724451    -0.59200
O126        O  0.22037772  0.55156078  0.39578020    -0.49200
O127        O  0.18112954  0.46383671  0.35890311    -0.55600
C128        C  0.30788852  0.46026285  0.35551529     0.84500
O129        O  0.28424917  0.57505815  0.32707712    -0.57500
O130        O  0.17948284  0.57227653  0.34487814    -0.60800
In131      In  0.45993038  0.74233354  0.15015416     1.36900
C132        C  0.52332829  0.67431873  0.13765636     0.76900
O133        O  0.51658498  0.79280960  0.13174884    -0.61500
O134        O  0.49357558  0.79509446  0.19237174    -0.52400
C135        C  0.39758120  0.78563693  0.10311961     0.69600
O136        O  0.42748211  0.75614861  0.08941857    -0.47300
C137        C  0.39746609  0.69482355  0.19365339     0.74300
O138        O  0.49972407  0.69243821  0.10937650    -0.59200
O139        O  0.42050852  0.72914974  0.20800540    -0.49200
O140        O  0.51491719  0.69168313  0.17197572    -0.55600
C141        C  0.52095466  0.81166469  0.16597064     0.84500
O142        O  0.39955263  0.79212783  0.14059430    -0.57500
O143        O  0.40631741  0.68567328  0.15721671    -0.60800
In144      In  0.45792616  0.75397457  0.40513360     1.36900
C145        C  0.51781481  0.82174059  0.42813344     0.76900
O146        O  0.51724253  0.70532223  0.42122919    -0.61500
O147        O  0.49469635  0.70584021  0.36036879    -0.52400
C148        C  0.39742209  0.70193681  0.44678681     0.69600
O149        O  0.42458549  0.73207915  0.46301542    -0.47300
C150        C  0.39746399  0.80370247  0.36109485     0.74300
O151        O  0.48776245  0.80402804  0.45177224    -0.59200
O152        O  0.42796180  0.77606288  0.34552228    -0.49200
O153        O  0.51634799  0.80475574  0.39301673    -0.55600
C154        C  0.52310917  0.68908800  0.38617672     0.84500
O155        O  0.40087382  0.69899912  0.40907608    -0.57500
O156        O  0.39810045  0.80524310  0.39887057    -0.60800
In157      In  0.21952317  0.98042443  0.22470343     1.36900
C158        C  0.14347008  0.03393337  0.24129556     0.76900
O159        O  0.26083041  0.04399278  0.24306843    -0.61500
O160        O  0.27141845  0.01671627  0.18429982    -0.52400
C161        C  0.27554901  0.92481694  0.26738782     0.69600
O162        O  0.23614075  0.94116340  0.28095991    -0.47300
C163        C  0.17843257  0.91694272  0.17704294     0.74300
O164        O  0.16625773  0.01266749  0.26838815    -0.59200
O165        O  0.20567199  0.94814747  0.16378040    -0.49200
O166        O  0.15883331  0.02595639  0.20626643    -0.55600
C167        C  0.28204046  0.04800893  0.20981144     0.84500
O168        O  0.28589004  0.93822970  0.23281459    -0.57500
O169        O  0.17248962  0.91872832  0.21447825    -0.60800
In170      In  0.23492804  0.97586137  0.47007937     1.36900
C171        C  0.16370806  0.03505712  0.48738444     0.76900
O172        O  0.28863344  0.02755433  0.49315921    -0.61500
O173        O  0.28403311  0.01503160  0.43006709    -0.52400
C174        C  0.28547871  0.91400607  0.01020958     0.69600
O175        O  0.25320568  0.93902945  0.02675263    -0.47300
C176        C  0.18819709  0.91870551  0.42087994     0.74300
O177        O  0.18042743  0.00752938  0.01304543    -0.59200
O178        O  0.22023813  0.94612348  0.40865844    -0.49200
O179        O  0.18311692  0.03098954  0.45333893    -0.55600
C180        C  0.30353519  0.03754036  0.45868835     0.84500
O181        O  0.29107099  0.92085148  0.47329300    -0.57500
O182        O  0.18029266  0.92092032  0.45813700    -0.59200
In183      In  0.00663367  0.74187236  0.02961022     1.36900
C184        C  0.94259818  0.80951946  0.01804458     0.76900
O185        O  0.94980933  0.69027813  0.01164786    -0.61500
O186        O  0.97660702  0.68906586  0.07132693    -0.52400
C187        C  0.06663782  0.69355239  0.48318296     0.69600
O188        O  0.03668457  0.72221486  0.46897421    -0.47300
C189        C  0.06670286  0.79311483  0.07424341     0.74300
O190        O  0.96979511  0.79417769  0.49035442    -0.59200
O191        O  0.03927658  0.76297234  0.08904384    -0.49200
O192        O  0.94797021  0.78920492  0.05087669    -0.55600
C193        C  0.94830074  0.67136732  0.04537602     0.84500
O194        O  0.06710218  0.69193799  0.02092954    -0.57500
O195        O  0.06512566  0.79475033  0.03645310    -0.60800
In196      In  0.00694791  0.75529985  0.27166887     1.36900
C197        C  0.95227158  0.68440852  0.29359303     0.76900
O198        O  0.94730001  0.80221795  0.29096077    -0.61500
O199        O  0.96992408  0.80501966  0.23047452    -0.52400
C200        C  0.06663455  0.80642675  0.31655415     0.69600
O201        O  0.04458618  0.77172310  0.32986907    -0.47300
C202        C  0.06462363  0.71144903  0.22054278     0.74300
O203        O  0.97873449  0.70666630  0.31803627    -0.59200
O204        O  0.02703494  0.73255842  0.20940006    -0.49200
O205        O  0.95456258  0.69804174  0.25804795    -0.55600
C206        C  0.94155141  0.82032476  0.25727722     0.84500
O207        O  0.05914628  0.81357060  0.27982665    -0.57500
O208        O  0.07397560  0.71484762  0.25753631    -0.60800
C209        C  0.16063233  0.88781563  0.39355471    -0.06800
C210        C  0.14832346  0.90394437  0.35543876    -0.17900
C211        C  0.11684978  0.87912823  0.33011653     0.10400
C212        C  0.09872245  0.83577662  0.34220211    -0.06700
C213        C  0.11194156  0.81945934  0.38015150    -0.17900
C214        C  0.14279314  0.84458609  0.40569289     0.10400
S215        S  0.09860930  0.90681039  0.28453758    -0.32900
S216        S  0.15902984  0.81859495  0.45268962    -0.32900
H217        H  0.20662090  0.83572688  0.45377851     0.28500
H218        H  0.04886289  0.89959542  0.29087403     0.28400
H219        H  0.16117744  0.93743989  0.34615394     0.19000
H220        H  0.09854196  0.78650863  0.39000192     0.19000
C221        C  0.15368134  0.88258455  0.15060225    -0.06800
C222        C  0.14462146  0.89450875  0.11068351    -0.17900
C223        C  0.11610708  0.86663693  0.08533379     0.10400
C224        C  0.09737147  0.82436988  0.09943317    -0.06700
C225        C  0.10746765  0.81190735  0.13915152    -0.17900
C226        C  0.13558879  0.84010270  0.16464453     0.10400
S227        S  0.10206475  0.88937113  0.03667472    -0.32900
S228        S  0.14831526  0.81880912  0.21407039    -0.32900
H229        H  0.19684478  0.83352045  0.21455301     0.28500
H230        H  0.05199384  0.88127838  0.03994990     0.28400
H231        H  0.15772015  0.92716003  0.09962859     0.19000
H232        H  0.09381778  0.77957653  0.15039983     0.19000
C233        C  0.36468656  0.83293261  0.33704538    -0.06800
C234        C  0.38006072  0.84637567  0.29897948    -0.17900
C235        C  0.35167773  0.87525008  0.27522332     0.10400
C236        C  0.30683536  0.89254293  0.29010931    -0.06700
C237        C  0.29149763  0.87887625  0.32820333    -0.17900
C238        C  0.31943109  0.84914097  0.35150678     0.10400
S239        S  0.37568744  0.88872628  0.22662406    -0.32900
S240        S  0.29430631  0.83238273  0.39881881    -0.32900
H241        H  0.30820803  0.78590551  0.39411299     0.28500
H242        H  0.33483999  0.87140914  0.20603032     0.28400
H243        H  0.41465581  0.83424619  0.28751861     0.19000
H244        H  0.25710287  0.89108858  0.33995481     0.19000
C245        C  0.36494905  0.81279326  0.07737446    -0.06800
C246        C  0.38175894  0.82584095  0.03962538    -0.17900
C247        C  0.35741380  0.85929864  0.01740564     0.10400
C248        C  0.31374534  0.87900369  0.03232620    -0.06700
C249        C  0.29573963  0.86401344  0.06920434    -0.17900
C250        C  0.32044626  0.83097313  0.09158401     0.10400
S251        S  0.38646089  0.87775236  0.47216756    -0.32900
S252        S  0.29245168  0.81252981  0.13739216    -0.32900
H253        H  0.30906641  0.76653742  0.13416377     0.28500
H254        H  0.38222128  0.92506406  0.48202519     0.28400
H255        H  0.41592421  0.81220539  0.02851925     0.19000
H256        H  0.26178210  0.87778327  0.08063936     0.19000
C257        C  0.09846856  0.66402496  0.45768501    -0.06800
C258        C  0.10809958  0.67741349  0.41824248    -0.17900
C259        C  0.13864783  0.65119564  0.39314819     0.10400
C260        C  0.16027657  0.61037352  0.40770227    -0.06700
C261        C  0.15139959  0.59747726  0.44731187    -0.17900
C262        C  0.11951025  0.62266409  0.47178609     0.10400
S263        S  0.14911739  0.67229568  0.34335566    -0.32900
S264        S  0.10307015  0.59697514  0.01855407    -0.32900
H265        H  0.05311919  0.60525793  0.01376107     0.28500
H266        H  0.19837308  0.65960601  0.34244366     0.28400
H267        H  0.09178869  0.70858988  0.40684035     0.19000
H268        H  0.16672900  0.56560349  0.45844575     0.19000
C269        C  0.36448994  0.66568521  0.21744814    -0.06800
C270        C  0.35907565  0.61911334  0.20546814    -0.17900
C271        C  0.33248505  0.58821214  0.22837713     0.10400
C272        C  0.30905724  0.60411710  0.26362882    -0.06700
C273        C  0.31365600  0.65077378  0.27538523    -0.17900
C274        C  0.34046111  0.68172250  0.25251930     0.10400
S275        S  0.33354056  0.52826729  0.21279907    -0.32900
S276        S  0.34076854  0.74129160  0.26896176    -0.32900
H277        H  0.33680002  0.75917096  0.23010729     0.28500
H278        H  0.33785936  0.51092354  0.25180942     0.28400
H279        H  0.37763429  0.60599550  0.17896471     0.19000
H280        H  0.29552287  0.66341167  0.30227619     0.19000
C281        C  0.15412826  0.62529548  0.14577351    -0.06800
C282        C  0.10368246  0.62427977  0.14089494    -0.17900
C283        C  0.07367809  0.65227037  0.16474331     0.10400
C284        C  0.09452374  0.68340041  0.19298652    -0.06700
C285        C  0.14505287  0.68605451  0.19643193    -0.17900
C286        C  0.17507470  0.65778773  0.17272907     0.10400
S287        S  0.00937052  0.64278962  0.16091033    -0.32900
S288        S  0.23957369  0.66567997  0.17745401    -0.32900
H289        H  0.25017981  0.65442898  0.13714180     0.28500
H290        H  0.00174446  0.64319084  0.20262280     0.28400
H291        H  0.08735810  0.59926680  0.12034825     0.19000
H292        H  0.16122812  0.71031301  0.21770941     0.19000
C293        C  0.36625640  0.67110917  0.47056969    -0.06800
C294        C  0.38154449  0.66078149  0.00960940    -0.17900
C295        C  0.35700609  0.62865926  0.03272481     0.10400
C296        C  0.31419725  0.60770848  0.01762334    -0.06700
C297        C  0.29877026  0.61798386  0.97857840    -0.17900
C298        C  0.32410027  0.64930063  0.45498896     0.10400
S299        S  0.38446721  0.61389046  0.07998384    -0.32900
S300        S  0.29940445  0.66086727  0.40606395    -0.32900
H301        H  0.30900891  0.70841007  0.40847454     0.28500
H302        H  0.37843390  0.56591677  0.07395835     0.28400
H303        H  0.41434691  0.67626916  0.02164842     0.19000
H304        H  0.26598475  0.60240881  0.46659460     0.19000
C305        C  0.41834879  0.35819645  0.37923161    -0.06800
C306        C  0.39764073  0.38373283  0.41119145    -0.17900
C307        C  0.36393138  0.41905266  0.40463520     0.10400
C308        C  0.34850311  0.42829593  0.36498529    -0.06700
C309        C  0.37078447  0.40406537  0.33294591    -0.17900
C310        C  0.40587478  0.36995943  0.33947035     0.10400
S311        S  0.34152777  0.44979023  0.44838367    -0.32900
S312        S  0.43083486  0.34112681  0.29574045    -0.32900
H313        H  0.47890807  0.35243449  0.30603365     0.28500
H314        H  0.35229991  0.49357329  0.43307012     0.28400
H315        H  0.40767442  0.37602300  0.44185124     0.19000
H316        H  0.36033317  0.41121422  0.30227459     0.19000
C317        C  0.40033548  0.15026724  0.43802163    -0.06800
C318        C  0.40866690  0.12131562  0.47070059    -0.17900
C319        C  0.37830444  0.08374351  0.47804368     0.10400
C320        C  0.33880045  0.07460463  0.45197615    -0.06700
C321        C  0.33003915  0.10399451  0.41985143    -0.17900
C322        C  0.35926138  0.14233042  0.41336274     0.10400
S323        S  0.39319672  0.04798627  0.52008310    -0.32900
S324        S  0.34003769  0.18120449  0.37478966    -0.32900
H325        H  0.35253525  0.22162717  0.39661083     0.28500
H326        H  0.37872597  0.00623522  0.00152488     0.28400
H327        H  0.43994298  0.12701142  0.48990197     0.19000
H328        H  0.29873849  0.09827445  0.40065848     0.19000
C329        C  0.40260012  0.36008352  0.14434600    -0.06800
C330        C  0.36021026  0.36497602  0.16732098    -0.17900
C331        C  0.32579810  0.39915297  0.15908995     0.10400
C332        C  0.33356048  0.42936918  0.12698483    -0.06700
C333        C  0.37663759  0.42544650  0.10482120    -0.17900
C334        C  0.41115186  0.39139437  0.11318817     0.10400
S335        S  0.27070857  0.39914107  0.18789576    -0.32900
S336        S  0.46634062  0.39123179  0.08454359    -0.32900
H337        H  0.45558395  0.34890424  0.06500494     0.28500
H338        H  0.27646958  0.44469681  0.20236986     0.28400
H339        H  0.35315188  0.34122915  0.19133347     0.19000
H340        H  0.38332777  0.44892748  0.08053982     0.19000
C341        C  0.38705901  0.15671454  0.19332718    -0.06800
C342        C  0.37455937  0.12711091  0.16100338    -0.17900
C343        C  0.33920548  0.09292681  0.16469053     0.10400
C344        C  0.31686758  0.08612283  0.20233681    -0.06700
C345        C  0.32866759  0.11654217  0.23443074    -0.17900
C346        C  0.36229386  0.15226081  0.23004839     0.10400
S347        S  0.32386358  0.06037086  0.11978949    -0.32900
S348        S  0.36989206  0.19237956  0.27160711    -0.32900
H349        H  0.36963719  0.23185597  0.24755770     0.28500
H350        H  0.27372713  0.06790163  0.12414156     0.28400
H351        H  0.39226986  0.13078463  0.13225104     0.19000
H352        H  0.31099303  0.11305456  0.26321259     0.19000
C353        C  0.90692960  0.84790956  0.01363637    -0.06800
C354        C  0.87742516  0.85944933  0.04684414    -0.17900
C355        C  0.84162572  0.89377552  0.04485544     0.10400
C356        C  0.83532021  0.91843981  0.50910458    -0.06700
C357        C  0.86479481  0.90716636  0.47597694    -0.17900
C358        C  0.90046923  0.87272131  0.47785429     0.10400
S359        S  0.80366253  0.90236456  0.08832094    -0.32900
S360        S  0.93607460  0.86256586  0.43332695    -0.32900
H361        H  0.98048155  0.86859330  0.45361482     0.28500
H362        H  0.76020246  0.90405351  0.06619039     0.28400
H363        H  0.88134067  0.84080454  0.07456080     0.19000
H364        H  0.86047442  0.92583808  0.44831032     0.19000
C365        C  0.55289724  0.85872199  0.43965054    -0.06800
C366        C  0.58636032  0.87255691  0.41046577    -0.17900
C367        C  0.62195216  0.90566012  0.41898729     0.10400
C368        C  0.62412962  0.92676538  0.45755230    -0.06700
C369        C  0.58990663  0.91404968  0.48641594    -0.17900
C370        C  0.55476349  0.88033984  0.47815408     0.10400
S371        S  0.66460223  0.91755686  0.37972976    -0.32900
S372        S  0.51351580  0.86732675  0.01804986    -0.32900
H373        H  0.52734675  0.82048497  0.01899596     0.28500
H374        H  0.70547191  0.91324120  0.40476337     0.28400
H375        H  0.58575837  0.85662240  0.38077244     0.19000
H376        H  0.59069624  0.93035813  0.01593008     0.19000
C377        C  0.58588271  0.16562005  0.10939090    -0.06800
C378        C  0.56882738  0.14676753  0.07298241    -0.17900
C379        C  0.59663458  0.11525672  0.05054323     0.10400
C380        C  0.64367062  0.10316135  0.06394481    -0.06700
C381        C  0.66061718  0.12178689  0.10057926    -0.17900
C382        C  0.63241543  0.15300678  0.12326913     0.10400
S383        S  0.56876154  0.09017272  0.50623931    -0.32900
S384        S  0.65874269  0.17747388  0.16842062    -0.32900
H385        H  0.63992316  0.22221611  0.16301869     0.28500
H386        H  0.58691009  0.04533572  0.51257518     0.28400
H387        H  0.53286846  0.15574550  0.06241027     0.19000
H388        H  0.69680771  0.11352182  0.11078234     0.19000
C389        C  0.83979227  0.92975843  0.23425708    -0.06800
C390        C  0.83650918  0.90494349  0.26979195    -0.17900
C391        C  0.86821254  0.86853043  0.27773268     0.10400
C392        C  0.90534519  0.85708526  0.24993328    -0.06700
C393        C  0.90932681  0.88287323  0.21478400    -0.17900
C394        C  0.87757884  0.91941953  0.20698581     0.10400
S395        S  0.85737670  0.83714864  0.32303164    -0.32900
S396        S  0.88891557  0.95297855  0.16293928    -0.32900
H397        H  0.87542682  0.99562108  0.18077269     0.28500
H398        H  0.85802686  0.79358791  0.30339469     0.28400
H399        H  0.80753572  0.91256982  0.29080991     0.19000
H400        H  0.93815295  0.87534953  0.19361942     0.19000
C401        C  0.62107698  0.92475679  0.18483242    -0.06800
C402        C  0.60748534  0.89688174  0.21706518    -0.17900
C403        C  0.57554535  0.85978402  0.21191028     0.10400
C404        C  0.55522136  0.85029890  0.17368205    -0.06700
C405        C  0.56784856  0.87866993  0.14154328    -0.17900
C406        C  0.59969485  0.91602124  0.14674962     0.10400
S407        S  0.56499751  0.82425824  0.25485314    -0.32900
S408        S  0.61055112  0.95131294  0.10374769    -0.32900
H409        H  0.60270711  0.99329774  0.12487840     0.28500
H410        H  0.57074336  0.78217885  0.23340111     0.28400
H411        H  0.62324592  0.90284573  0.24654349     0.19000
H412        H  0.55205483  0.87225375  0.11215267     0.19000
C413        C  0.58725585  0.16053186  0.33412648    -0.06800
C414        C  0.63384313  0.14822011  0.34708389    -0.17900
C415        C  0.66507047  0.12201038  0.32241482     0.10400
C416        C  0.64980084  0.10813671  0.28343947    -0.06700
C417        C  0.60316365  0.12072438  0.27051028    -0.17900
C418        C  0.57149355  0.14548687  0.29567100     0.10400
S419        S  0.72461326  0.10858475  0.34129514    -0.32900
S420        S  0.51062837  0.15419039  0.27771125    -0.32900
H421        H  0.48855518  0.14698352  0.31506826     0.28500
H422        H  0.71001555  0.10886401  0.38160833     0.28400
H423        H  0.64640167  0.16016302  0.37630875     0.19000
H424        H  0.59038493  0.10958815  0.24111835     0.19000
C425        C  0.56000718  0.65279422  0.37733285    -0.06800
C426        C  0.57689938  0.62655465  0.40954176    -0.17900
C427        C  0.61106353  0.59124003  0.40413139     0.10400
C428        C  0.63034898  0.58174110  0.36553815    -0.06700
C429        C  0.61305619  0.60776097  0.33308429    -0.17900
C430        C  0.57876331  0.64329608  0.33856324     0.10400
S431        S  0.62707281  0.55901977  0.44780865    -0.32900
S432        S  0.56273590  0.67667138  0.29533119    -0.32900
H433        H  0.56771431  0.71962230  0.31552674     0.28500
H434        H  0.61458475  0.51666416  0.42910030     0.28400
H435        H  0.56265267  0.63296596  0.43941830     0.19000
H436        H  0.62733367  0.60136044  0.30322610     0.19000
C437        C  0.92045321  0.64587834  0.30501683    -0.06800
C438        C  0.91377792  0.60892190  0.27756545    -0.17900
C439        C  0.88133171  0.57311673  0.28539025     0.10400
C440        C  0.85223266  0.57561329  0.32023803    -0.06700
C441        C  0.86002216  0.61197021  0.34818400    -0.17900
C442        C  0.89419509  0.64647719  0.34128134     0.10400
S443        S  0.88031323  0.52459384  0.25058780    -0.32900
S444        S  0.89964244  0.69248052  0.37821181    -0.32900
H445        H  0.94845651  0.68206371  0.38652722     0.28500
H446        H  0.87895490  0.49125915  0.28080396     0.28400
H447        H  0.93460275  0.60753157  0.25005355     0.19000
H448        H  0.83860949  0.61422727  0.37535306     0.19000
C449        C  0.65674270  0.39491878  0.27537867    -0.06800
C450        C  0.64812863  0.35075527  0.29042746    -0.17900
C451        C  0.61793370  0.31921052  0.26996303     0.10400
C452        C  0.59457612  0.33250892  0.23425876    -0.06700
C453        C  0.60442078  0.37623258  0.21861673    -0.17900
C454        C  0.63485797  0.40750736  0.23884839     0.10400
S455        S  0.61221504  0.26132110  0.28830388    -0.32900
S456        S  0.64197187  0.46375346  0.21765970    -0.32900
H457        H  0.63706072  0.48807176  0.25442378     0.28500
H458        H  0.64292153  0.26653425  0.32185211     0.28400
H459        H  0.66575184  0.34079650  0.31801627     0.19000
H460        H  0.58695845  0.38682421  0.19109960     0.19000
C461        C  0.55884549  0.63651392  0.13100654    -0.06800
C462        C  0.58730708  0.63697425  0.09625035    -0.17900
C463        C  0.62455032  0.60467159  0.08995213     0.10400
C464        C  0.63257870  0.56940741  0.11818329    -0.06700
C465        C  0.60376318  0.56885136  0.15280102    -0.17900
C466        C  0.56695007  0.60155454  0.15937975     0.10400
S467        S  0.66260728  0.61275862  0.04682851    -0.32900
S468        S  0.53026717  0.59529710  0.20362308    -0.32900
H469        H  0.48650651  0.60798201  0.18497002     0.28500
H470        H  0.70614905  0.60573262  0.06802354     0.28400
H471        H  0.58199617  0.66407366  0.07464506     0.19000
H472        H  0.60908377  0.54207677  0.17455882     0.19000
C473        C  0.84595204  0.56444013  0.07503519    -0.06800
C474        C  0.85990294  0.57038834  0.03490269    -0.17900
C475        C  0.89441187  0.60344027  0.02437131     0.10400
C476        C  0.91493402  0.63274862  0.05441149    -0.06700
C477        C  0.90153966  0.62643703  0.09446692    -0.17900
C478        C  0.86773998  0.59296442  0.10513872     0.10400
S479        S  0.91176053  0.60503400  0.47231140    -0.32900
S480        S  0.85432813  0.58917158  0.15780115    -0.32900
H481        H  0.80506806  0.60017436  0.15236795     0.28500
H482        H  0.96158040  0.60930488  0.48066545     0.28400
H483        H  0.84425749  0.54869612  0.01136992     0.19000
H484        H  0.91644984  0.64882167  0.11780307     0.19000
C485        C  0.60329601  0.31794304  0.47916044    -0.06800
C486        C  0.62381547  0.35769601  0.46268826    -0.17900
C487        C  0.65203895  0.38810751  0.48595205     0.10400
C488        C  0.66173369  0.37830084  0.02654403    -0.06700
C489        C  0.64275846  0.33789408  0.04277223    -0.17900
C490        C  0.61394051  0.30778020  0.01964113     0.10400
S491        S  0.67130426  0.44058100  0.46285808    -0.32900
S492        S  0.59313889  0.25647831  0.04330694    -0.32900
H493        H  0.54458159  0.27151002  0.04318628     0.28500
H494        H  0.65991349  0.46924401  0.49615133     0.28400
H495        H  0.61615625  0.36641954  0.43183577     0.19000
H496        H  0.65036179  0.32972036  0.07376014     0.19000
C497        C  0.04794450  0.35269863  0.31668465    -0.06800
C498        C  0.06419673  0.37447232  0.28181841    -0.17900
C499        C  0.09880071  0.40997451  0.28357645     0.10400
C500        C  0.11985807  0.42298744  0.32095924    -0.06700
C501        C  0.10236936  0.40206390  0.35584602    -0.17900
C502        C  0.06690753  0.36757249  0.35420296     0.10400
S503        S  0.11382707  0.43725521  0.23711795    -0.32900
S504        S  0.04929484  0.34260905  0.40108267    -0.32900
H505        H  0.05529965  0.29669038  0.38713362     0.28500
H506        H  0.10587171  0.48227523  0.25263589     0.28400
H507        H  0.04916373  0.36431414  0.25288097     0.19000
H508        H  0.11719910  0.41187078  0.38492778     0.19000
C509        C  0.10274815  0.06632954  0.24988233    -0.06800
C510        C  0.07808057  0.06330754  0.28657509    -0.17900
C511        C  0.04114873  0.09469597  0.29703080     0.10400
C512        C  0.02877039  0.13050181  0.27053639    -0.06700
C513        C  0.05105226  0.13168896  0.23290921    -0.17900
C514        C  0.08833127  0.10088336  0.22260971     0.10400
S515        S  0.01054387  0.08650900  0.34408390    -0.32900
S516        S  0.11872547  0.11092581  0.17583487    -0.32900
H517        H  0.16514468  0.11206143  0.19346920     0.28500
H518        H  0.96607081  0.10573505  0.33201127     0.28400
H519        H  0.08768190  0.03639403  0.30736254     0.19000
H520        H  0.04189984  0.15909182  0.21245848     0.19000
C521        C  0.86640644  0.18142363  0.39113923    -0.06800
C522        C  0.88937665  0.14318962  0.40828231    -0.17900
C523        C  0.86295043  0.11001611  0.42890693     0.10400
C524        C  0.81275879  0.11660469  0.43494082    -0.06700
C525        C  0.79033318  0.15639107  0.42003884    -0.17900
C526        C  0.81640242  0.18852451  0.39781371     0.10400
S527        S  0.89448753  0.05787945  0.44272901    -0.32900
S528        S  0.78376679  0.23754984  0.37860046    -0.32900
H529        H  0.82369804  0.26755906  0.37779739     0.28500
H530        H  0.85495426  0.02786160  0.43738766     0.28400
H531        H  0.92742995  0.13689712  0.40248030     0.19000
H532        H  0.75208123  0.16220783  0.42533048     0.19000
C533        C  0.85535984  0.31507931  0.22816304    -0.06800
C534        C  0.87112785  0.31830421  0.18836341    -0.17900
C535        C  0.84926035  0.34880813  0.16163558     0.10400
C536        C  0.80924049  0.37635832  0.17436344    -0.06700
C537        C  0.79246878  0.37171635  0.21394468    -0.17900
C538        C  0.81464538  0.34128513  0.24067098     0.10400
S539        S  0.87592371  0.35173569  0.11247719    -0.32900
S540        S  0.78801912  0.33605888  0.28969219    -0.32900
H541        H  0.79751263  0.28840676  0.29261671     0.28500
H542        H  0.88404101  0.39969476  0.11566360     0.28400
H543        H  0.90248581  0.29854051  0.17844998     0.19000
H544        H  0.76138421  0.39161044  0.22419676     0.19000
C545        C  0.05878170  0.35420510  0.04974478    -0.06800
C546        C  0.04718756  0.39015331  0.07705954    -0.17900
C547        C  0.07813122  0.42798002  0.08297903     0.10400
C548        C  0.12187478  0.43008605  0.06115639    -0.06700
C549        C  0.13284095  0.39493145  0.03313430    -0.17900
C550        C  0.10271428  0.35655393  0.02801718     0.10400
S551        S  0.05912623  0.47285876  0.11794971    -0.32900
S552        S  0.12489710  0.31023505  0.49594763    -0.32900
H553        H  0.11043615  0.27487316  0.52169252     0.28500
H554        H  0.08054427  0.50937221  0.09719787     0.28400
H555        H  0.01339881  0.38918745  0.09348600     0.19000
H556        H  0.16684467  0.39580791  0.01698323     0.19000
C557        C  0.05333912  0.13991632  0.00546031    -0.06800
C558        C  0.06856224  0.11304483  0.03796863    -0.17900
C559        C  0.10418053  0.07865006  0.03346386     0.10400
C560        C  0.12504583  0.07001489  0.49527307    -0.06700
C561        C  0.10899128  0.09635586  0.46270410    -0.17900
C562        C  0.07357072  0.13066035  0.46720564     0.10400
S563        S  0.12183767  0.04807122  0.07777465    -0.32900
S564        S  0.05825301  0.16308926  0.42334890    -0.32900
H565        H  0.00937420  0.14979230  0.42439904     0.28500
H566        H  0.17102756  0.05992674  0.07423357     0.28400
H567        H  0.05331137  0.11951157  0.06749898     0.19000
H568        H  0.12437595  0.09051848  0.43314675     0.19000
C569        C  0.80585615  0.11449984  0.14193933    -0.06800
C570        C  0.82413263  0.09869129  0.10492526    -0.17900
C571        C  0.85667982  0.12527599  0.08323494     0.10400
C572        C  0.86884508  0.17030253  0.09705926    -0.06700
C573        C  0.85040330  0.18636599  0.13394066    -0.17900
C574        C  0.81928897  0.15902997  0.15658677     0.10400
S575        S  0.88534444  0.09780533  0.04052576    -0.32900
S576        S  0.79771513  0.18369129  0.20341109    -0.32900
H577        H  0.75263391  0.16147912  0.20272963     0.28500
H578        H  0.93155550  0.11642432  0.04825521     0.28400
H579        H  0.81547196  0.06410478  0.09402745     0.19000
H580        H  0.85975726  0.22070337  0.14497346     0.19000
C581        C  0.81892684  0.39153232  0.40970153    -0.06800
C582        C  0.79912334  0.37607538  0.44583618    -0.17900
C583        C  0.82299891  0.34326990  0.46920059     0.10400
C584        C  0.86862065  0.32586194  0.45689381    -0.06700
C585        C  0.88804270  0.34041639  0.42043060    -0.17900
C586        C  0.86433825  0.37338025  0.39713047     0.10400
S587        S  0.79216712  0.32366658  0.51332904    -0.32900
S588        S  0.89589821  0.39271632  0.35330846    -0.32900
H589        H  0.88647772  0.43991299  0.36099261     0.28500
H590        H  0.80952767  0.27800230  0.01042300     0.28400
H591        H  0.76415313  0.38885786  0.45565628     0.19000
H592        H  0.92329019  0.32774879  0.41093849     0.19000
In593      In  0.95962318  0.24936978  0.52881009     1.36900
C594        C  0.01919941  0.17881629  0.51331392     0.76900
O595        O  0.02098302  0.29380541  0.51044061    -0.61500
O596        O  0.99275099  0.30463240  0.56901768    -0.52400
C597        C  0.89918925  0.29655935  0.98276164     0.69600
O598        O  0.92836475  0.26666274  0.96866873    -0.47300
C599        C  0.89991785  0.20087063  0.57318428     0.74300
O600        O  0.99357373  0.19745800  0.98661653    -0.59200
O601        O  0.92872111  0.23017644  0.58874145    -0.49200
O602        O  0.01388511  0.19644797  0.54796048    -0.55600
C603        C  0.02348879  0.31635381  0.54306872     0.84500
O604        O  0.90020895  0.30121146  0.52044444    -0.57500
O605        O  0.90012589  0.19895537  0.53532806    -0.60800
In606      In  0.94753500  0.24579064  0.80426955     1.36900
C607        C  0.01187171  0.31478504  0.81260065     0.76900
O608        O  0.00055387  0.18879346  0.81715104    -0.61500
O609        O  0.96969280  0.19048767  0.75896110    -0.52400
C610        C  0.89399357  0.20799504  0.86150398     0.69600
O611        O  0.93666731  0.22182757  0.86768756    -0.47300
C612        C  0.88550034  0.28814766  0.75623559     0.74300
O613        O  0.98265620  0.30400989  0.83985093    -0.59200
O614        O  0.90957138  0.25290717  0.74510905    -0.49200
O615        O  0.00790724  0.29028758  0.78113662    -0.55600
C616        C  0.99815238  0.17036452  0.78268804     0.84500
O617        O  0.87800549  0.21550772  0.82676874    -0.57500
O618        O  0.89171747  0.30024101  0.79253621    -0.60800
In619      In  0.73833459  0.46881714  0.59972712     1.36900
C620        C  0.80871509  0.52884165  0.58391175     0.76900
O621        O  0.68504704  0.52084196  0.57772864    -0.61500
O622        O  0.68808110  0.50997018  0.64031950    -0.52400
C623        C  0.69026438  0.40968255  0.55282219     0.69600
O624        O  0.72622765  0.43230884  0.54064522    -0.47300
C625        C  0.78363876  0.40932559  0.64758626     0.74300
O626        O  0.78961194  0.50324716  0.55707322    -0.59200
O627        O  0.74948833  0.43532196  0.65965259    -0.49200
O628        O  0.79272381  0.52200364  0.61861928    -0.55600
C629        C  0.66952737  0.53248768  0.61194601     0.84500
O630        O  0.68001313  0.41633496  0.58937608    -0.57500
O631        O  0.79381093  0.41390963  0.61103339    -0.60800
In632      In  0.74001825  0.48549135  0.84288715     1.36900
C633        C  0.81228922  0.54277533  0.82786461     0.76900
O634        O  0.68489694  0.53762651  0.82321751    -0.61500
O635        O  0.69053454  0.52442681  0.88526615    -0.52400
C636        C  0.68768953  0.42690292  0.79909254     0.69600
O637        O  0.71739603  0.45446884  0.78352960    -0.47300
C638        C  0.79062320  0.42522322  0.88583390     0.74300
O639        O  0.79407935  0.51633397  0.80120109    -0.59200
O640        O  0.75782444  0.45075653  0.90096034    -0.49200
O641        O  0.79271527  0.54001805  0.86186918    -0.55600
C642        C  0.66940509  0.54682169  0.85802898     0.84500
O643        O  0.68604860  0.42867544  0.83694475    -0.57500
O644        O  0.79661557  0.43034570  0.84867557    -0.60800
In645      In  0.72939589  0.02099376  0.70887883     1.36900
C646        C  0.65935202  0.96014233  0.69238955     0.76900
O647        O  0.78640391  0.97028063  0.69014398    -0.61500
O648        O  0.77859602  0.98559812  0.75236902    -0.52400
C649        C  0.77721717  0.08189455  0.66573161     0.69600
O650        O  0.74809321  0.05305311  0.65004381    -0.47300
C651        C  0.67968795  0.07825603  0.75642389     0.74300
O652        O  0.67870064  0.98421640  0.66558247    -0.59200
O653        O  0.71608483  0.05565049  0.76824594    -0.49200
O654        O  0.67626360  0.96763922  0.72707502    -0.55600
C655        C  0.80103375  0.96319633  0.72531922     0.84500
O656        O  0.78138888  0.07942050  0.70328451    -0.57500
O657        O  0.66952030  0.07202098  0.71970240    -0.60800
In658      In  0.73084547  0.01933866  0.99292473     1.36900
C659        C  0.66190450  0.96075643  0.96946679     0.76900
O660        O  0.78100810  0.96454072  0.97027769    -0.61500
O661        O  0.78165009  0.97988338  0.53300400    -0.52400
C662        C  0.78299857  0.08243288  0.95583534     0.69600
O663        O  0.74678412  0.06298662  0.93963164    -0.47300
C664        C  0.67632512  0.07365085  0.53931158     0.74300
O665        O  0.68381292  0.98630211  0.94511424    -0.59200
O666        O  0.70840018  0.04740969  0.55393770    -0.49200
O667        O  0.67488036  0.96620668  0.00558307    -0.55600
C668        C  0.79830671  0.95526391  0.00427740     0.84500
O669        O  0.79216062  0.06985928  0.99108373    -0.57500
O670        O  0.67419748  0.07298814  0.00148712    -0.60800
In671      In  0.49429114  0.25271170  0.67256446     1.36900
C672        C  0.43636570  0.32209077  0.65404177     0.76900
O673        O  0.43637523  0.20447700  0.65226028    -0.61500
O674        O  0.45070344  0.20981947  0.71487452    -0.52400
C675        C  0.55361031  0.19716939  0.63229373     0.69600
O676        O  0.52687265  0.22660338  0.61536391    -0.47300
C677        C  0.55936735  0.30248288  0.71268472     0.74300
O678        O  0.46408563  0.30275582  0.62858648    -0.59200
O679        O  0.53277560  0.27317917  0.72974597    -0.49200
O680        O  0.43859931  0.30556707  0.68876949    -0.55600
C681        C  0.42557401  0.19147696  0.68698128     0.84500
O682        O  0.54975202  0.19616335  0.67001998    -0.57500
O683        O  0.55259304  0.30551091  0.67537215    -0.60800
In684      In  0.50449220  0.24581798  0.90819839     1.36900
C685        C  0.43699664  0.18545302  0.92829677     0.76900
O686        O  0.44906843  0.30000618  0.92314119    -0.61500
O687        O  0.47915968  0.29933931  0.86479728    -0.52400
C688        C  0.56942132  0.29016438  0.95374655     0.69600
O689        O  0.54240366  0.25886573  0.96698171    -0.47300
C690        C  0.55756718  0.19099488  0.86054332     0.74300
O691        O  0.46633892  0.20230167  0.95378121    -0.59200
O692        O  0.52757090  0.21999582  0.84733178    -0.49200
O693        O  0.44261274  0.19974487  0.89320714    -0.55600
C694        C  0.44989291  0.31828016  0.88908653     0.84500
O695        O  0.56388582  0.29745965  0.91680189    -0.57500
O696        O  0.56114676  0.19086271  0.89827089    -0.60800
In697      In  0.23090716  0.52273224  0.58757532     1.36900
C698        C  0.29665726  0.46292502  0.61363627     0.76900
O699        O  0.16968070  0.47754573  0.60550167    -0.61500
O700        O  0.18600125  0.48184231  0.54333787    -0.52400
C701        C  0.18281569  0.58940956  0.62498586     0.69600
O702        O  0.21759661  0.56836955  0.64144878    -0.47300
C703        C  0.28394693  0.57700496  0.54223546     0.74300
O704        O  0.26973163  0.48594754  0.63719094    -0.59200
O705        O  0.25216323  0.55019623  0.52741834    -0.49200
O706        O  0.28990372  0.47086855  0.57701586    -0.55600
C707        C  0.15958007  0.46471942  0.57011262     0.84500
O708        O  0.17301685  0.57609992  0.58966034    -0.57500
O709        O  0.28734766  0.57607047  0.57992712    -0.60800
In710      In  0.23420888  0.51586028  0.83693585     1.36900
C711        C  0.16094830  0.45626559  0.82545828     0.76900
O712        O  0.29105220  0.46357326  0.82046339    -0.61500
O713        O  0.28653839  0.48559039  0.88116536    -0.52400
C714        C  0.28108229  0.57299366  0.78934075     0.69600
O715        O  0.25272769  0.54215400  0.77570836    -0.47300
C716        C  0.18793978  0.57782192  0.88187948     0.74300
O717        O  0.17910541  0.47894728  0.79722699    -0.59200
O718        O  0.22040712  0.55161443  0.89574558    -0.49200
O719        O  0.18116113  0.46383867  0.85888461    -0.55600
C720        C  0.30790322  0.46028173  0.85551480     0.84500
O721        O  0.28426350  0.57507596  0.82707338    -0.57500
O722        O  0.17947301  0.57227092  0.84484502    -0.60800
In723      In  0.45996591  0.74234925  0.65016063     1.36900
C724        C  0.52335228  0.67432970  0.63764075     0.76900
O725        O  0.51660776  0.79283651  0.63175391    -0.61500
O726        O  0.49362487  0.79509804  0.69238364    -0.52400
C727        C  0.39760024  0.78564511  0.60313347     0.69600
O728        O  0.42751311  0.75617084  0.58942823    -0.47300
C729        C  0.39751355  0.69483042  0.69366094     0.74300
O730        O  0.49974651  0.69246145  0.60936813    -0.59200
O731        O  0.42053464  0.72917168  0.70800970    -0.49200
O732        O  0.51495459  0.69168835  0.67196480    -0.55600
C733        C  0.52099001  0.81168066  0.66597884     0.84500
O734        O  0.39956791  0.79212614  0.64060927    -0.57500
O735        O  0.40638047  0.68566977  0.65722890    -0.60800
In736      In  0.45793653  0.75396511  0.90513151     1.36900
C737        C  0.51782062  0.82174178  0.92811905     0.76900
O738        O  0.51726639  0.70533082  0.92122570    -0.61500
O739        O  0.49469432  0.70581977  0.86037007    -0.52400
C740        C  0.39744711  0.70191700  0.94678680     0.69600
O741        O  0.42460044  0.73206819  0.96301518    -0.47300
C742        C  0.39746213  0.80367670  0.86109410     0.74300
O743        O  0.48777215  0.80403052  0.95176216    -0.59200
O744        O  0.42797645  0.77605459  0.84552067    -0.49200
O745        O  0.51634993  0.80475248  0.89300399    -0.55600
C746        C  0.52311886  0.68908190  0.88617643     0.84500
O747        O  0.40090255  0.69897605  0.90907658    -0.57500
O748        O  0.39808592  0.80520468  0.89887008    -0.60800
In749      In  0.21955173  0.98042285  0.72470320     1.36900
C750        C  0.14349731  0.03393514  0.74127519     0.76900
O751        O  0.26085229  0.04399314  0.74307214    -0.61500
O752        O  0.27144252  0.01672254  0.68430132    -0.52400
C753        C  0.27557559  0.92482540  0.76739831     0.69600
O754        O  0.23615773  0.94115994  0.78096175    -0.47300
C755        C  0.17847035  0.91692614  0.67705031     0.74300
O756        O  0.16627666  0.01267206  0.76837431    -0.59200
O757        O  0.20571900  0.94812217  0.66378497    -0.49200
O758        O  0.15886975  0.02595385  0.70624963    -0.55600
C759        C  0.28206180  0.04801407  0.70981524     0.84500
O760        O  0.28592817  0.93824873  0.73283076    -0.57500
O761        O  0.17251598  0.91872694  0.71448380    -0.60800
In762      In  0.23495839  0.97589588  0.97008038     1.36900
C763        C  0.16374967  0.03509752  0.98739889     0.76900
O764        O  0.28868146  0.02757107  0.99315525    -0.61500
O765        O  0.28404859  0.01507305  0.93006115    -0.52400
C766        C  0.28545644  0.91398148  0.51021650     0.69600
O767        O  0.25316876  0.93899247  0.52675379    -0.47300
C768        C  0.18821779  0.91873879  0.92089122     0.74300
O769        O  0.18038567  0.00749518  0.51303623    -0.59200
O770        O  0.22026284  0.94614940  0.90866437    -0.49200
O771        O  0.18315204  0.03103295  0.95335056    -0.55600
C772        C  0.30356638  0.03756924  0.95868236     0.84500
O773        O  0.29108717  0.92087251  0.97328480    -0.57500
O774        O  0.18031251  0.92096417  0.95814782    -0.59200
In775      In  0.00663530  0.74185767  0.52964786     1.36900
C776        C  0.94260046  0.80950816  0.51809537     0.76900
O777        O  0.94980930  0.69027606  0.51166744    -0.61500
O778        O  0.97659133  0.68904913  0.57135164    -0.52400
C779        C  0.06663618  0.69357717  0.98313685     0.69600
O780        O  0.03667857  0.72223729  0.96893153    -0.47300
C781        C  0.06671411  0.79309810  0.57427141     0.74300
O782        O  0.96979011  0.79418122  0.99030528    -0.59200
O783        O  0.03928777  0.76295855  0.58907720    -0.49200
O784        O  0.94797087  0.78918548  0.55092397    -0.55600
C785        C  0.94828877  0.67135964  0.54539276     0.84500
O786        O  0.06709889  0.69191369  0.52097592    -0.57500
O787        O  0.06512998  0.79473151  0.53648119    -0.60800
In788      In  0.00693860  0.75532892  0.77171051     1.36900
C789        C  0.95224737  0.68444966  0.79362990     0.76900
O790        O  0.94729709  0.80226102  0.79098742    -0.61500
O791        O  0.96991318  0.80502318  0.73049660    -0.52400
C792        C  0.06663405  0.80645781  0.81658674     0.69600
O793        O  0.04457385  0.77176551  0.82990946    -0.47300
C794        C  0.06460909  0.71145381  0.72059910     0.74300
O795        O  0.97869463  0.70671496  0.81807988    -0.59200
O796        O  0.02705011  0.73260260  0.70944475    -0.49200
O797        O  0.95455809  0.69807292  0.75808299    -0.55600
C798        C  0.94154351  0.82034445  0.75729454     0.84500
O799        O  0.05915185  0.81359004  0.77985663    -0.57500
O800        O  0.07393658  0.71482501  0.75759848    -0.60800
C801        C  0.16064925  0.88784568  0.89357211    -0.06800
C802        C  0.14835785  0.90396001  0.85544786    -0.17900
C803        C  0.11687955  0.87914435  0.83012981     0.10400
C804        C  0.09872809  0.83580749  0.84222929    -0.06700
C805        C  0.11192965  0.81950407  0.88018765    -0.17900
C806        C  0.14278865  0.84462960  0.90572348     0.10400
S807        S  0.09866425  0.90681152  0.78453757    -0.32900
S808        S  0.15901029  0.81865223  0.95272950    -0.32900
H809        H  0.20661295  0.83575643  0.95380709     0.28500
H810        H  0.04891263  0.89962338  0.79086903     0.28400
H811        H  0.16122920  0.93744521  0.84615242     0.19000
H812        H  0.09851156  0.78656506  0.89004942     0.19000
C813        C  0.15371825  0.88256334  0.65061434    -0.06800
C814        C  0.14467174  0.89447505  0.61069060    -0.17900
C815        C  0.11614968  0.86660506  0.58534534     0.10400
C816        C  0.09739176  0.82435156  0.59945519    -0.06700
C817        C  0.10747678  0.81189991  0.63917808    -0.17900
C818        C  0.13560639  0.84009307  0.66466610     0.10400
S819        S  0.10212947  0.88932535  0.53667687    -0.32900
S820        S  0.14831930  0.81880883  0.71409751    -0.32900
H821        H  0.19685076  0.83351405  0.71458561     0.28500
H822        H  0.05205267  0.88126430  0.53995085     0.28400
H823        H  0.15778650  0.92711677  0.59962781     0.19000
H824        H  0.09381165  0.77957867  0.65043417     0.19000
C825        C  0.36468682  0.83290861  0.83704550    -0.06800
C826        C  0.38007338  0.84636734  0.79898773    -0.17900
C827        C  0.35170440  0.87526127  0.77523890     0.10400
C828        C  0.30685698  0.89254748  0.79011989    -0.06700
C829        C  0.29150597  0.87886415  0.82820554    -0.17900
C830        C  0.31943054  0.84911727  0.85150513     0.10400
S831        S  0.37574470  0.88878015  0.72665975    -0.32900
S832        S  0.29429734  0.83235209  0.89881252    -0.32900
H833        H  0.30819496  0.78587393  0.89410226     0.28500
H834        H  0.33492008  0.87146082  0.70603548     0.28400
H835        H  0.41467173  0.83424202  0.78753037     0.19000
H836        H  0.25710914  0.89107454  0.83995417     0.19000
C837        C  0.36496027  0.81279755  0.57739099    -0.06800
C838        C  0.38176416  0.82584606  0.53964042    -0.17900
C839        C  0.35740995  0.85929644  0.51741940     0.10400
C840        C  0.31373474  0.87899021  0.53233772    -0.06700
C841        C  0.29573650  0.86400098  0.56921890    -0.17900
C842        C  0.32045496  0.83097087  0.59160194     0.10400
S843        S  0.38646536  0.87774676  0.97215137    -0.32900
S844        S  0.29247294  0.81253282  0.63741693    -0.32900
H845        H  0.30908392  0.76653933  0.63418599     0.28500
H846        H  0.38223855  0.92505996  0.98200775     0.28400
H847        H  0.41593199  0.81221724  0.52853367     0.19000
H848        H  0.26177636  0.87776437  0.58065424     0.19000
C849        C  0.09846542  0.66405070  0.95763689    -0.06800
C850        C  0.10808724  0.67743278  0.91819044    -0.17900
C851        C  0.13863653  0.65121378  0.89309698     0.10400
C852        C  0.16027736  0.61040062  0.90765720    -0.06700
C853        C  0.15140801  0.59751110  0.94726936    -0.17900
C854        C  0.11951560  0.62269554  0.97174167     0.10400
S855        S  0.14909224  0.67229972  0.84329770    -0.32900
S856        S  0.10305607  0.59694096  0.51859483    -0.32900
H857        H  0.05310722  0.60523479  0.51380158     0.28500
H858        H  0.19834752  0.65960932  0.84237786     0.28400
H859        H  0.09176848  0.70860350  0.90678458     0.19000
H860        H  0.16674568  0.56564274  0.95840705     0.19000
C861        C  0.36454399  0.66568694  0.71745452    -0.06800
C862        C  0.35919539  0.61909773  0.70550788    -0.17900
C863        C  0.33260778  0.58819652  0.72841814     0.10400
C864        C  0.30911201  0.60411916  0.76363251    -0.06700
C865        C  0.31365007  0.65079128  0.77535783    -0.17900
C866        C  0.34045489  0.68174015  0.75249157     0.10400
S867        S  0.33375437  0.52823505  0.71289401    -0.32900
S868        S  0.34067652  0.74132900  0.76888128    -0.32900
H869        H  0.33676300  0.75916020  0.73000595     0.28500
H870        H  0.33799702  0.51093751  0.75192575     0.28400
H871        H  0.37780346  0.60596958  0.67903197     0.19000
H872        H  0.29546611  0.66344062  0.80222119     0.19000
C873        C  0.15409910  0.62528761  0.64582853    -0.06800
C874        C  0.10365470  0.62430038  0.64093248    -0.17900
C875        C  0.07365449  0.65229274  0.66478391     0.10400
C876        C  0.09450462  0.68339627  0.69304699    -0.06700
C877        C  0.14503281  0.68601825  0.69651410    -0.17900
C878        C  0.17504977  0.65774819  0.67281079     0.10400
S879        S  0.00934281  0.64284983  0.66092638    -0.32900
S880        S  0.23955099  0.66559387  0.67757202    -0.32900
H881        H  0.25017151  0.65439675  0.63725205     0.28500
H882        H  0.00169439  0.64324409  0.70263573     0.28400
H883        H  0.08732660  0.59930937  0.62036756     0.19000
H884        H  0.16121132  0.71025557  0.71780838     0.19000
C885        C  0.36628696  0.67108367  0.97056819    -0.06800
C886        C  0.38151810  0.66080104  0.50960864    -0.17900
C887        C  0.35697416  0.62868560  0.53272708     0.10400
C888        C  0.31415620  0.60774688  0.51763132    -0.06700
C889        C  0.29872442  0.61802818  0.47858878    -0.17900
C890        C  0.32414131  0.64926237  0.95498174     0.10400
S891        S  0.38443925  0.61390894  0.57998264    -0.32900
S892        S  0.29945297  0.66082089  0.90605261    -0.32900
H893        H  0.30902724  0.70836949  0.90847159     0.28500
H894        H  0.37840045  0.56593648  0.57395257     0.28400
H895        H  0.41432764  0.67627894  0.52164374     0.19000
H896        H  0.26603719  0.60235588  0.96658008     0.19000
C897        C  0.41837227  0.35822733  0.87924026    -0.06800
C898        C  0.39764963  0.38375380  0.91119985    -0.17900
C899        C  0.36394084  0.41907434  0.90464142     0.10400
C900        C  0.34852172  0.42832146  0.86498990    -0.06700
C901        C  0.37082018  0.40410375  0.83295182    -0.17900
C902        C  0.40591511  0.37000314  0.83947852     0.10400
S903        S  0.34153513  0.44981584  0.94838747    -0.32900
S904        S  0.43090934  0.34119879  0.79574877    -0.32900
H905        H  0.47897330  0.35251198  0.80606828     0.28500
H906        H  0.35228019  0.49359992  0.93306305     0.28400
H907        H  0.40767433  0.37603818  0.94186037     0.19000
H908        H  0.36038054  0.41125978  0.80227917     0.19000
C909        C  0.40036535  0.15029583  0.93802068    -0.06800
C910        C  0.40870474  0.12133450  0.97069127    -0.17900
C911        C  0.37834200  0.08376268  0.97803215     0.10400
C912        C  0.33883061  0.07463353  0.95197001    -0.06700
C913        C  0.33005969  0.10403525  0.91985498    -0.17900
C914        C  0.35928242  0.14237168  0.91336964     0.10400
S915        S  0.39324073  0.04799523  0.02006343    -0.32900
S916        S  0.34004949  0.18126388  0.87481319    -0.32900
H917        H  0.35257761  0.22167733  0.89663502     0.28500
H918        H  0.37867508  0.00622265  0.50155522     0.28400
H919        H  0.43998713  0.12702261  0.98988721     0.19000
H920        H  0.29875187  0.09832405  0.90066816     0.19000
C921        C  0.40261057  0.36013126  0.64436249    -0.06800
C922        C  0.36025578  0.36507052  0.66737638    -0.17900
C923        C  0.32583980  0.39924418  0.65914343     0.10400
C924        C  0.33356603  0.42941714  0.62700073    -0.06700
C925        C  0.37661102  0.42545162  0.60479876    -0.17900
C926        C  0.41112518  0.39139784  0.61316290     0.10400
S927        S  0.27078104  0.39926605  0.68799149    -0.32900
S928        S  0.46626207  0.39117189  0.58444883    -0.32900
H929        H  0.45545308  0.34882139  0.56496943     0.28500
H930        H  0.27652790  0.44484722  0.70240234     0.28400
H931        H  0.35322267  0.34135789  0.69141953     0.19000
H932        H  0.38327352  0.44889684  0.58048588     0.19000
C933        C  0.38707251  0.15673120  0.69334118    -0.06800
C934        C  0.37458053  0.12712559  0.66101647    -0.17900
C935        C  0.33923042  0.09293709  0.66470033     0.10400
C936        C  0.31688627  0.08613166  0.70234378    -0.06700
C937        C  0.32868008  0.11655109  0.73443917    -0.17900
C938        C  0.36230523  0.15227173  0.73006109     0.10400
S939        S  0.32390462  0.06037423  0.61979952    -0.32900
S940        S  0.36990360  0.19238138  0.77162604    -0.32900
H941        H  0.36963649  0.23186327  0.74758347     0.28500
H942        H  0.27376642  0.06790235  0.62414045     0.28400
H943        H  0.39229487  0.13080053  0.63226591     0.19000
H944        H  0.31100312  0.11306054  0.76321971     0.19000
C945        C  0.90692957  0.84789749  0.51369107    -0.06800
C946        C  0.87742218  0.85943232  0.54689861    -0.17900
C947        C  0.84161562  0.89375262  0.54490887     0.10400
C948        C  0.83532938  0.91845942  0.00904971    -0.06700
C949        C  0.86480029  0.90718068  0.97592084    -0.17900
C950        C  0.90047231  0.87273311  0.97779902     0.10400
S951        S  0.80363912  0.90232612  0.58836850    -0.32900
S952        S  0.93608262  0.86257827  0.93327429    -0.32900
H953        H  0.98048791  0.86859562  0.95356686     0.28500
H954        H  0.76018500  0.90402685  0.56623082     0.28400
H955        H  0.88133863  0.84078581  0.57461430     0.19000
H956        H  0.86048043  0.92585145  0.94825372     0.19000
C957        C  0.55290619  0.85872332  0.93963044    -0.06800
C958        C  0.58638526  0.87253477  0.91044933    -0.17900
C959        C  0.62197987  0.90563677  0.91896662     0.10400
C960        C  0.62414509  0.92676404  0.95752320    -0.06700
C961        C  0.58990954  0.91406895  0.98638383    -0.17900
C962        C  0.55476134  0.88036239  0.97812580     0.10400
S963        S  0.66464967  0.91750409  0.87971644    -0.32900
S964        S  0.51354528  0.86726626  0.51808760    -0.32900
H965        H  0.52738132  0.82042401  0.51899759     0.28500
H966        H  0.70550739  0.91320814  0.90476629     0.28400
H967        H  0.58579324  0.85658279  0.88076263     0.19000
H968        H  0.59070218  0.93032156  0.51596846     0.19000
C969        C  0.58589760  0.16565156  0.60941706    -0.06800
C970        C  0.56883945  0.14678288  0.57301579    -0.17900
C971        C  0.59664491  0.11526239  0.55058537     0.10400
C972        C  0.64368183  0.10317232  0.56398806    -0.06700
C973        C  0.66063345  0.12181737  0.60061364    -0.17900
C974        C  0.63243266  0.15304626  0.62329578     0.10400
S975        S  0.56875374  0.09018553  0.00618840    -0.32900
S976        S  0.65876083  0.17753119  0.66843991    -0.32900
H977        H  0.63993212  0.22226851  0.66303036     0.28500
H978        H  0.58689816  0.04534480  0.01251354     0.28400
H979        H  0.53287904  0.15575507  0.56244330     0.19000
H980        H  0.69682623  0.11356030  0.61081505     0.19000
C981        C  0.83978832  0.92976631  0.73423401    -0.06800
C982        C  0.83650355  0.90496775  0.76977727    -0.17900
C983        C  0.86820584  0.86855924  0.77773187     0.10400
C984        C  0.90533521  0.85709740  0.74993464    -0.06700
C985        C  0.90931396  0.88286388  0.71477279    -0.17900
C986        C  0.87757074  0.91941049  0.70696349     0.10400
S987        S  0.85737871  0.83721174  0.82305065    -0.32900
S988        S  0.88891568  0.95295425  0.66290947    -0.32900
H989        H  0.87542973  0.99560400  0.68073079     0.28500
H990        H  0.85803173  0.79363594  0.80343996     0.28400
H991        H  0.80753330  0.91260784  0.79079485     0.19000
H992        H  0.93813796  0.87532714  0.69360943     0.19000
C993        C  0.62109853  0.92478401  0.68483381    -0.06800
C994        C  0.60752190  0.89690235  0.71706636    -0.17900
C995        C  0.57558662  0.85980070  0.71191392     0.10400
C996        C  0.55525371  0.85031760  0.67368850    -0.06700
C997        C  0.56786711  0.87869497  0.64155027    -0.17900
C998        C  0.59970716  0.91605095  0.64675455     0.10400
S999        S  0.56505573  0.82426870  0.75485553    -0.32900
S1000       S  0.61053978  0.95135500  0.60375620    -0.32900
H1001       H  0.60270653  0.99333450  0.62489785     0.28500
H1002       H  0.57080523  0.78219277  0.73339901     0.28400
H1003       H  0.62329077  0.90286443  0.74654195     0.19000
H1004       H  0.55206599  0.87228103  0.61216206     0.19000
C1005       C  0.58729217  0.16057202  0.83411581    -0.06800
C1006       C  0.63388737  0.14827289  0.84706383    -0.17900
C1007       C  0.66511443  0.12206984  0.82238851     0.10400
C1008       C  0.64983488  0.10818444  0.78341928    -0.06700
C1009       C  0.60319197  0.12076250  0.77049803    -0.17900
C1010       C  0.57152404  0.14552232  0.79566299     0.10400
S1011       S  0.72467158  0.10867107  0.84125029    -0.32900
S1012       S  0.51065457  0.15421846  0.77771146    -0.32900
H1013       H  0.48859116  0.14699848  0.81507031     0.28500
H1014       H  0.71007904  0.10891735  0.88156401     0.28400
H1015       H  0.64645291  0.16022180  0.87628493     0.19000
H1016       H  0.59040739  0.10962009  0.74110956     0.19000
C1017       C  0.56001339  0.65278621  0.87733513    -0.06800
C1018       C  0.57689873  0.62654625  0.90954579    -0.17900
C1019       C  0.61106391  0.59123251  0.90413950     0.10400
C1020       C  0.63035504  0.58173368  0.86554825    -0.06700
C1021       C  0.61306736  0.60775318  0.83309222    -0.17900
C1022       C  0.57877383  0.64328796  0.83856731     0.10400
S1023       S  0.62707162  0.55901823  0.94782047    -0.32900
S1024       S  0.56275104  0.67666229  0.79533328    -0.32900
H1025       H  0.56771412  0.71961396  0.81553032     0.28500
H1026       H  0.61457783  0.51666089  0.92911793     0.28400
H1027       H  0.56264713  0.63295803  0.93942065     0.19000
H1028       H  0.62734932  0.60135267  0.80323554     0.19000
C1029       C  0.92042897  0.64591807  0.80504654    -0.06800
C1030       C  0.91377029  0.60895957  0.77759450    -0.17900
C1031       C  0.88133169  0.57314700  0.78541381     0.10400
C1032       C  0.85222673  0.57563558  0.82025847    -0.06700
C1033       C  0.85999683  0.61199759  0.84820334    -0.17900
C1034       C  0.89415935  0.64651428  0.84130482     0.10400
S1035       S  0.88033001  0.52462748  0.75060763    -0.32900
S1036       S  0.89957818  0.69252504  0.87823128    -0.32900
H1037       H  0.94838903  0.68211672  0.88656744     0.28500
H1038       H  0.87898214  0.49128929  0.78082107     0.28400
H1039       H  0.93460273  0.60757324  0.75008649     0.19000
H1040       H  0.83857682  0.61425083  0.87536859     0.19000
C1041       C  0.65676032  0.39492999  0.77539280    -0.06800
C1042       C  0.64818405  0.35074847  0.79041722    -0.17900
C1043       C  0.61798654  0.31920834  0.76995043     0.10400
C1044       C  0.59459107  0.33252898  0.73426985    -0.06700
C1045       C  0.60440026  0.37627088  0.71865005    -0.17900
C1046       C  0.63483749  0.40754249  0.73888493     0.10400
S1047       S  0.61231101  0.26129897  0.78825494    -0.32900
S1048       S  0.64189852  0.46381607  0.71773557    -0.32900
H1049       H  0.63700987  0.48809353  0.75452166     0.28500
H1050       H  0.64303219  0.26649977  0.82179526     0.28400
H1051       H  0.66583714  0.34077365  0.81798852     0.19000
H1052       H  0.58690749  0.38687893  0.69115099     0.19000
C1053       C  0.55885218  0.63651340  0.63097849    -0.06800
C1054       C  0.58732305  0.63698197  0.59622790    -0.17900
C1055       C  0.62455172  0.60466558  0.58992118     0.10400
C1056       C  0.63255781  0.56938264  0.61813971    -0.06700
C1057       C  0.60372515  0.56881380  0.65274727    -0.17900
C1058       C  0.56692567  0.60152883  0.65933346     0.10400
S1059       S  0.66261525  0.61275665  0.54680215    -0.32900
S1060       S  0.53021862  0.59525527  0.70356132    -0.32900
H1061       H  0.48647491  0.60798905  0.68490688     0.28500
H1062       H  0.70615325  0.60572372  0.56800043     0.28400
H1063       H  0.58203063  0.66409701  0.57463441     0.19000
H1064       H  0.60902292  0.54202124  0.67449161     0.19000
C1065       C  0.84592692  0.56443388  0.57502379    -0.06800
C1066       C  0.85987079  0.57039968  0.53489196    -0.17900
C1067       C  0.89438136  0.60345319  0.52436824     0.10400
C1068       C  0.91491339  0.63274424  0.55441663    -0.06700
C1069       C  0.90152147  0.62641813  0.59447052    -0.17900
C1070       C  0.86771940  0.59294478  0.60513414     0.10400
S1071       S  0.91180351  0.60499635  0.97231629    -0.32900
S1072       S  0.85431168  0.58913263  0.65779581    -0.32900
H1073       H  0.80505328  0.60014646  0.65236875     0.28500
H1074       H  0.96161943  0.60929423  0.98067601     0.28400
H1075       H  0.84421876  0.54871991  0.51135358     0.19000
H1076       H  0.91643613  0.64879141  0.61781260     0.19000
C1077       C  0.60331787  0.31795874  0.97917710    -0.06800
C1078       C  0.62384459  0.35770951  0.96270762    -0.17900
C1079       C  0.65206117  0.38812233  0.98597588     0.10400
C1080       C  0.66172253  0.37828293  0.52651749    -0.06700
C1081       C  0.64275294  0.33787577  0.54274822    -0.17900
C1082       C  0.61393044  0.30776253  0.51962179     0.10400
S1083       S  0.67132940  0.44059509  0.96288271    -0.32900
S1084       S  0.59314115  0.25645733  0.54328920    -0.32900
H1085       H  0.54458338  0.27148776  0.54318381     0.28500
H1086       H  0.65992462  0.46925918  0.99617188     0.28400
H1087       H  0.61619511  0.36643152  0.93185313     0.19000
H1088       H  0.65036496  0.32970092  0.57373450     0.19000
C1089       C  0.04798672  0.35269034  0.81665917    -0.06800
C1090       C  0.06422054  0.37448411  0.78179717    -0.17900
C1091       C  0.09882311  0.40998702  0.78355853     0.10400
C1092       C  0.11989589  0.42298208  0.82093988    -0.06700
C1093       C  0.10242815  0.40203492  0.85582325    -0.17900
C1094       C  0.06696952  0.36754044  0.85417693     0.10400
S1095       S  0.11382585  0.43729254  0.73710600    -0.32900
S1096       S  0.04938852  0.34253925  0.90104933    -0.32900
H1097       H  0.05536346  0.29663007  0.88706639     0.28500
H1098       H  0.10587375  0.48230454  0.75264328     0.28400
H1099       H  0.04917312  0.36434161  0.75286095     0.19000
H1100       H  0.11727228  0.41182510  0.88490397     0.19000
C1101       C  0.10277305  0.06633116  0.74985169    -0.06800
C1102       C  0.07810892  0.06332104  0.78654654    -0.17900
C1103       C  0.04117547  0.09470918  0.79699500     0.10400
C1104       C  0.02878995  0.13050244  0.77049025    -0.06700
C1105       C  0.05106741  0.13167707  0.73286057    -0.17900
C1106       C  0.08835029  0.10087227  0.72256871     0.10400
S1107       S  0.01058299  0.08654223  0.84405657    -0.32900
S1108       S  0.11874192  0.11090085  0.67579009    -0.32900
H1109       H  0.16516096  0.11205228  0.69342417     0.28500
H1110       H  0.96609817  0.10573619  0.83197466     0.28400
H1111       H  0.08771563  0.03641799  0.80734254     0.19000
H1112       H  0.04191049  0.15907115  0.71240235     0.19000
C1113       C  0.86643786  0.18142649  0.89109610    -0.06800
C1114       C  0.88940037  0.14319268  0.90824672    -0.17900
C1115       C  0.86296722  0.11002994  0.92887867     0.10400
C1116       C  0.81277605  0.11662776  0.93490864    -0.06700
C1117       C  0.79036032  0.15641766  0.92000390    -0.17900
C1118       C  0.81643642  0.18854031  0.89777259     0.10400
S1119       S  0.89449643  0.05789685  0.94272198    -0.32900
S1120       S  0.78381361  0.23757034  0.87855441    -0.32900
H1121       H  0.82374866  0.26757688  0.87777601     0.28500
H1122       H  0.85496405  0.02787903  0.93737533     0.28400
H1123       H  0.92745240  0.13689210  0.90244661     0.19000
H1124       H  0.75211056  0.16224494  0.92529708     0.19000
C1125       C  0.85538461  0.31507449  0.72812002    -0.06800
C1126       C  0.87113935  0.31829291  0.68831619    -0.17900
C1127       C  0.84926058  0.34879094  0.66158919     0.10400
C1128       C  0.80924466  0.37634272  0.67432337    -0.06700
C1129       C  0.79248494  0.37170513  0.71390838    -0.17900
C1130       C  0.81467198  0.34127959  0.74063335     0.10400
S1131       S  0.87590366  0.35170900  0.61242268    -0.32900
S1132       S  0.78806255  0.33606202  0.78966169    -0.32900
H1133       H  0.79755962  0.28841106  0.79259106     0.28500
H1134       H  0.88403503  0.39966609  0.61560595     0.28400
H1135       H  0.90249500  0.29852883  0.67839831     0.19000
H1136       H  0.76140279  0.39159967  0.72416535     0.19000
C1137       C  0.05878218  0.35421165  0.54970770    -0.06800
C1138       C  0.04717478  0.39016107  0.57701770    -0.17900
C1139       C  0.07811279  0.42799061  0.58294431     0.10400
C1140       C  0.12186920  0.43009479  0.56113984    -0.06700
C1141       C  0.13284849  0.39494078  0.53312055    -0.17900
C1142       C  0.10272179  0.35656486  0.52798953     0.10400
S1143       S  0.05908136  0.47287869  0.61789582    -0.32900
S1144       S  0.12488637  0.31021073  0.99598824    -0.32900
H1145       H  0.11041551  0.27485869  0.02173968     0.28500
H1146       H  0.08051255  0.50938726  0.59714646     0.28400
H1147       H  0.01337833  0.38919536  0.59343335     0.19000
H1148       H  0.16685885  0.39581922  0.51697911     0.19000
C1149       C  0.05331123  0.13989259  0.50542534    -0.06800
C1150       C  0.06849921  0.11300072  0.53793137    -0.17900
C1151       C  0.10410761  0.07859585  0.53343238     0.10400
C1152       C  0.12509020  0.07005517  0.99529599    -0.06700
C1153       C  0.10900620  0.09637887  0.96272650    -0.17900
C1154       C  0.07357831  0.13067555  0.96723404     0.10400
S1155       S  0.12171012  0.04798178  0.57773876    -0.32900
S1156       S  0.05822113  0.16308014  0.92337296    -0.32900
H1157       H  0.00934911  0.14976518  0.92444948     0.28500
H1158       H  0.17090383  0.05984339  0.57424652     0.28400
H1159       H  0.05322752  0.11945863  0.56745561     0.19000
H1160       H  0.12437113  0.09053186  0.93316322     0.19000
C1161       C  0.80587710  0.11451400  0.64191762    -0.06800
C1162       C  0.82415993  0.09869714  0.60490882    -0.17900
C1163       C  0.85670759  0.12527876  0.58321723     0.10400
C1164       C  0.86886335  0.17031072  0.59703307    -0.06700
C1165       C  0.85041423  0.18638277  0.63390913    -0.17900
C1166       C  0.81930186  0.15904878  0.65655848     0.10400
S1167       S  0.88538630  0.09779784  0.54051973    -0.32900
S1168       S  0.79772055  0.18371812  0.70337770    -0.32900
H1169       H  0.75265480  0.16147768  0.70271500     0.28500
H1170       H  0.93159063  0.11643337  0.54824617     0.28400
H1171       H  0.81550493  0.06410660  0.59401757     0.19000
H1172       H  0.85976129  0.22072460  0.64493507     0.19000
C1173       C  0.81894160  0.39155067  0.90973901    -0.06800
C1174       C  0.79914696  0.37612080  0.94588601    -0.17900
C1175       C  0.82301815  0.34331887  0.96925690     0.10400
C1176       C  0.86862659  0.32588475  0.95694286    -0.06700
C1177       C  0.88804263  0.34041732  0.92047008    -0.17900
C1178       C  0.86434301  0.37337925  0.89716435     0.10400
S1179       S  0.79219679  0.32375569  0.01340429    -0.32900
S1180       S  0.89589675  0.39268769  0.85332960    -0.32900
H1181       H  0.88648204  0.43988931  0.86099373     0.28500
H1182       H  0.80953405  0.27792585  0.51034159     0.28400
H1183       H  0.76418627  0.38892154  0.95571127     0.19000
H1184       H  0.92328163  0.32773244  0.91097290     0.19000
loop_ 
_geom_bond_atom_site_label_1 
_geom_bond_atom_site_label_2 
_geom_bond_distance 
_geom_bond_site_symmetry_2 
_ccdc_geom_bond_type 
In1           O3   2.225   1_655  S
In1           O4   2.259       .  S
In1          O12   2.239       .  S
In1           O9   2.254       .  S
In1          O10   2.238   1_655  S
In1          O13   2.215       .  S
In1         O598   2.245   1_554  S
In1         O600   2.242   1_554  S
C2           O10   1.261       .  A
C2          O600   1.264   1_454  A
C2          C557   1.485       .  S
O3           C11   1.258       .  A
O4           C11   1.265   1_655  A
C5            O6   1.264       .  A
C5          O604   1.262       .  A
C5          C584   1.480       .  S
O6         In593   2.245       .  S
C7            O9   1.266       .  A
C7           O13   1.261       .  A
C7          C572   1.479       .  S
O8         In593   2.242       .  S
O8          C594   1.264   1_655  A
C11         C545   1.481       .  S
O12         C597   1.262   1_554  A
In14         O16   2.247   1_655  S
In14         O17   2.261       .  S
In14         O25   2.250       .  S
In14         O19   2.258       .  S
In14         O21   2.259       .  S
In14         O22   2.242       .  S
In14         O23   2.257   1_655  S
In14         O26   2.238       .  S
C15          O21   1.261   1_455  A
C15          O23   1.258       .  A
C15         C497   1.488       .  S
O16          C24   1.258   1_455  A
O17          C24   1.262       .  A
C18          O25   1.260       .  A
C18          O19   1.261       .  A
C18         C521   1.477       .  S
C20          O22   1.265       .  A
C20          O26   1.264       .  A
C20         C533   1.481       .  S
C24         C512   1.479   1_655  S
In27         O29   2.233       .  S
In27         O30   2.260       .  S
In27         O38   2.238       .  S
In27         O32   2.240       .  S
In27         O34   2.258       .  S
In27         O35   2.256       .  S
In27         O36   2.234       .  S
In27         O39   2.239       .  S
C28          O34   1.264       .  A
C28          O36   1.259       .  A
C28         C473   1.492       .  S
O29          C37   1.258       .  A
O30          C37   1.264       .  A
C31          O38   1.262       .  A
C31          O32   1.264       .  A
C31         C488   1.477       .  S
C33          O35   1.265       .  A
C33          O39   1.260       .  A
C33         C536   1.493       .  S
C37         C464   1.486       .  S
In40         O42   2.244       .  S
In40         O43   2.251       .  S
In40         O51   2.228       .  S
In40         O45   2.243       .  S
In40         O47   2.242       .  S
In40         O48   2.250       .  S
In40         O49   2.230       .  S
In40         O52   2.239       .  S
C41          O47   1.265       .  A
C41          O49   1.261       .  A
C41         C440   1.484       .  S
O42          C50   1.261       .  A
O43          C50   1.265       .  A
C44          O51   1.262       .  A
C44          O45   1.265       .  A
C44         C449   1.476       .  S
C46          O48   1.266       .  A
C46          O52   1.261       .  A
C46         C581   1.488       .  S
C50         C428   1.493       .  S
In53         O55   2.230   1_545  S
In53         O56   2.242   1_545  S
In53         O64   2.232       .  S
In53         O58   2.248       .  S
In53         O60   2.260   1_545  S
In53         O61   2.230       .  S
In53         O62   2.227   1_545  S
In53         O65   2.237       .  S
C54          O60   1.264       .  A
C54          O62   1.260       .  A
C54         C401   1.490       .  S
O55          C63   1.259       .  A
O56          C63   1.262       .  A
C57          O64   1.259       .  A
C57          O58   1.265       .  A
C57         C569   1.478       .  S
C59          O61   1.263       .  A
C59          O65   1.264       .  A
C59         C416   1.485       .  S
C63         C389   1.473       .  S
In66         O68   2.223   1_545  S
In66         O77   2.242       .  S
In66         O71   2.245       .  S
In66         O73   2.252   1_545  S
In66         O75   2.230   1_545  S
In66         O78   2.214       .  S
In66        O661   2.255   1_545  S
In66        O666   2.260       .  S
C67          O73   1.265       .  A
C67          O75   1.261       .  A
C67         C368   1.483       .  S
O68          C76   1.261       .  A
O69        In658   2.255   1_564  S
O69         C668   1.267       .  A
C70          O77   1.261       .  A
C70          O71   1.263       .  A
C70         C524   1.476       .  S
C72          O74   1.267       .  A
C72         O670   1.259       .  A
C72         C380   1.479       .  S
O74        In658   2.260   1_554  S
C76         O661   1.267       .  A
C76         C356   1.483       .  S
O78         C664   1.259       .  A
In79         O81   2.221       .  S
In79         O82   2.251       .  S
In79         O90   2.237       .  S
In79         O84   2.227       .  S
In79         O86   2.237       .  S
In79         O87   2.248       .  S
In79         O88   2.224       .  S
In79         O91   2.223       .  S
C80          O86   1.265       .  A
C80          O88   1.262       .  A
C80         C329   1.479       .  S
O81          C89   1.261       .  A
O82          C89   1.267       .  A
C83          O90   1.263       .  A
C83          O84   1.265       .  A
C83         C377   1.476       .  S
C85          O87   1.268       .  A
C85          O91   1.261       .  A
C85         C452   1.481       .  S
C89         C341   1.484       .  S
In92         O94   2.236       .  S
In92         O95   2.247       .  S
In92        O103   2.236       .  S
In92         O97   2.243       .  S
In92         O99   2.258       .  S
In92        O100   2.241       .  S
In92        O101   2.220       .  S
In92        O104   2.246       .  S
C93          O99   1.263       .  A
C93         O101   1.258       .  A
C93         C317   1.478       .  S
O94         C102   1.262       .  A
O95         C102   1.261       .  A
C96         O103   1.262       .  A
C96          O97   1.262       .  A
C96         C485   1.487       .  S
C98         O100   1.261       .  A
C98         O104   1.261       .  A
C98         C413   1.480       .  S
C102        C305   1.485       .  S
In105       O107   2.231       .  S
In105       O108   2.244       .  S
In105       O116   2.218       .  S
In105       O110   2.237       .  S
In105       O112   2.250       .  S
In105       O113   2.251       .  S
In105       O114   2.234       .  S
In105       O117   2.216       .  S
C106        O112   1.261       .  A
C106        O114   1.259       .  A
C106        C332   1.477       .  S
O107        C115   1.260       .  A
O108        C115   1.264       .  A
C109        O116   1.260       .  A
C109        O110   1.264       .  A
C109        C281   1.468       .  S
C111        O113   1.266       .  A
C111        O117   1.260       .  A
C111        C296   1.482       .  S
C115        C548   1.473       .  S
In118       O120   2.237       .  S
In118       O121   2.248       .  S
In118       O129   2.235       .  S
In118       O123   2.252       .  S
In118       O125   2.268       .  S
In118       O126   2.230       .  S
In118       O127   2.239       .  S
In118       O130   2.232       .  S
C119        O125   1.264       .  A
C119        O127   1.260       .  A
C119        C500   1.495       .  S
O120        C128   1.261       .  A
O121        C128   1.261       .  A
C122        O129   1.260       .  A
C122        O123   1.265       .  A
C122        C272   1.478       .  S
C124        O126   1.264       .  A
C124        O130   1.262       .  A
C124        C260   1.475       .  S
C128        C308   1.488       .  S
In131       O133   2.239       .  S
In131       O134   2.255       .  S
In131       O142   2.225       .  S
In131       O136   2.252       .  S
In131       O138   2.248       .  S
In131       O139   2.257       .  S
In131       O140   2.235       .  S
In131       O143   2.229       .  S
C132        O138   1.265       .  A
C132        O140   1.262       .  A
C132        C461   1.480       .  S
O133        C141   1.260       .  A
O134        C141   1.264       .  A
C135        O142   1.260       .  A
C135        O136   1.265       .  A
C135        C245   1.477       .  S
C137        O139   1.266       .  A
C137        O143   1.262       .  A
C137        C269   1.485       .  S
C141        C404   1.485       .  S
In144       O146   2.226       .  S
In144       O147   2.260       .  S
In144       O155   2.248       .  S
In144       O149   2.243       .  S
In144       O151   2.258       .  S
In144       O152   2.252       .  S
In144       O153   2.229       .  S
In144       O156   2.228       .  S
C145        O151   1.263       .  A
C145        O153   1.260       .  A
C145        C365   1.489       .  S
O146        C154   1.261       .  A
O147        C154   1.264       .  A
C148        O155   1.261       .  A
C148        O149   1.264       .  A
C148        C293   1.484       .  S
C150        O152   1.264       .  A
C150        O156   1.259       .  A
C150        C233   1.481       .  S
C154        C425   1.486       .  S
In157       O159   2.241   1_565  S
In157       O160   2.247   1_565  S
In157       O168   2.216       .  S
In157       O162   2.256       .  S
In157       O164   2.258   1_565  S
In157       O165   2.249       .  S
In157       O166   2.220   1_565  S
In157       O169   2.231       .  S
C158        O164   1.267       .  A
C158        O166   1.260       .  A
C158        C509   1.486       .  S
O159        C167   1.263       .  A
O160        C167   1.264       .  A
C161        O168   1.257       .  A
C161        O162   1.266       .  A
C161        C236   1.486       .  S
C163        O165   1.264       .  A
C163        O169   1.259       .  A
C163        C221   1.482       .  S
C167        C344   1.491       .  S
In170       O172   2.233   1_565  S
In170       O173   2.232   1_565  S
In170       O181   2.221       .  S
In170       O178   2.240       .  S
In170       O179   2.216   1_565  S
In170       O182   2.224       .  S
In170       O767   2.242       .  S
In170       O769   2.259   1_565  S
C171        O179   1.259       .  A
C171        O769   1.265       .  A
C171        C560   1.488       .  S
O172        C180   1.261       .  A
O173        C180   1.264       .  A
C174        O175   1.267       .  A
C174        O773   1.260   1_554  A
C174        C248   1.482       .  S
O175       In762   2.242   1_554  S
C176        O178   1.264       .  A
C176        O182   1.261       .  A
C176        C209   1.474       .  S
O177       In762   2.259   1_544  S
O177        C763   1.265   1_554  A
C180        C320   1.472       .  S
O181        C766   1.260       .  A
In183       O185   2.241   1_455  S
In183       O186   2.248   1_455  S
In183       O194   2.219       .  S
In183       O191   2.247       .  S
In183       O192   2.225   1_455  S
In183       O195   2.236       .  S
In183       O780   2.249   1_554  S
In183       O782   2.258   1_454  S
C184        O192   1.260       .  A
C184        O782   1.265   1_554  A
C184        C353   1.490       .  S
O185        C193   1.260       .  A
O186        C193   1.265       .  A
C187        O188   1.266       .  A
C187        O786   1.261       .  A
C187        C257   1.481       .  S
O188       In775   2.249       .  S
C189        O191   1.265       .  A
C189        O195   1.261       .  A
C189        C224   1.486       .  S
O190       In775   2.258   1_655  S
O190        C776   1.265       .  A
C193        C476   1.486       .  S
O194        C779   1.261   1_554  A
In196       O198   2.219   1_455  S
In196       O199   2.248   1_455  S
In196       O207   2.233       .  S
In196       O201   2.240       .  S
In196       O203   2.253   1_455  S
In196       O204   2.235       .  S
In196       O205   2.241   1_455  S
In196       O208   2.232       .  S
C197        O203   1.261       .  A
C197        O205   1.257       .  A
C197        C437   1.478       .  S
O198        C206   1.257       .  A
O199        C206   1.262       .  A
C200        O207   1.261       .  A
C200        O201   1.264       .  A
C200        C212   1.485       .  S
C202        O204   1.261       .  A
C202        O208   1.260       .  A
C202        C284   1.467       .  S
C206        C392   1.480       .  S
C209        C210   1.402       .  A
C209        C214   1.413       .  A
C210        C211   1.399       .  A
C210        H219   1.084       .  S
C211        C212   1.418       .  A
C211        S215   1.800       .  S
C212        C213   1.405       .  A
C213        C214   1.397       .  A
C213        H220   1.081       .  S
C214        S216   1.805       .  S
S215        H218   1.407       .  S
S216        H217   1.406       .  S
C221        C222   1.402       .  A
C221        C226   1.417       .  A
C222        C223   1.398       .  A
C222        H231   1.084       .  S
C223        C224   1.418       .  A
C223        S227   1.802       .  S
C224        C225   1.405       .  A
C225        C226   1.400       .  A
C225        H232   1.084       .  S
C226        S228   1.803       .  S
S227        H230   1.408       .  S
S228        H229   1.407       .  S
C233        C234   1.402       .  A
C233        C238   1.416       .  A
C234        C235   1.398       .  A
C234        H243   1.084       .  S
C235        C236   1.421       .  A
C235        S239   1.802       .  S
C236        C237   1.404       .  A
C237        C238   1.398       .  A
C237        H244   1.084       .  S
C238        S240   1.800       .  S
S239        H242   1.407       .  S
S240        H241   1.402       .  S
C245        C246   1.401       .  A
C245        C250   1.414       .  A
C246        C247   1.399       .  A
C246        H255   1.084       .  S
C247        C248   1.419       .  A
C247        S843   1.801   1_554  S
C248        C249   1.404       .  A
C249        C250   1.398       .  A
C249        H256   1.085       .  S
C250        S252   1.804       .  S
S251        C839   1.801       .  S
S251        H254   1.405       .  S
S252        H253   1.408       .  S
C257        C258   1.404       .  A
C257        C262   1.416       .  A
C258        C259   1.400       .  A
C258        H267   1.081       .  S
C259        C260   1.415       .  A
C259        S263   1.804       .  S
C260        C261   1.401       .  A
C261        C262   1.395       .  A
C261        H268   1.085       .  S
C262        S856   1.802       .  S
S263        H266   1.407       .  S
S264        C854   1.802   1_554  S
S264        H265   1.408       .  S
C269        C270   1.405       .  A
C269        C274   1.415       .  A
C270        C271   1.399       .  A
C270        H279   1.084       .  S
C271        C272   1.411       .  A
C271        S275   1.800       .  S
C272        C273   1.404       .  A
C273        C274   1.402       .  A
C273        H280   1.084       .  S
C274        S276   1.797       .  S
S275        H278   1.407       .  S
S276        H277   1.407       .  S
C281        C282   1.402       .  A
C281        C286   1.411       .  A
C282        C283   1.395       .  A
C282        H291   1.084       .  S
C283        C284   1.412       .  A
C283        S287   1.801       .  S
C284        C285   1.402       .  A
C285        C286   1.397       .  A
C285        H292   1.084       .  S
C286        S288   1.802       .  S
S287        H290   1.406       .  S
S288        H289   1.407       .  S
C293        C298   1.418       .  A
C293        C886   1.403       .  A
C294        C295   1.397       .  A
C294        C885   1.403   1_554  A
C294        H303   1.084       .  S
C295        C296   1.416       .  A
C295        S299   1.803       .  S
C296        C297   1.404   1_554  A
C297        C890   1.401       .  A
C297        H896   1.084       .  S
C298        C889   1.401       .  A
C298        S300   1.802       .  S
S299        H302   1.408       .  S
S300        H301   1.402       .  S
H304        C889   1.084       .  S
C305        C306   1.406       .  A
C305        C310   1.415       .  A
C306        C307   1.399       .  A
C306        H315   1.085       .  S
C307        C308   1.417       .  A
C307        S311   1.802       .  S
C308        C309   1.407       .  A
C309        C310   1.400       .  A
C309        H316   1.085       .  S
C310        S312   1.802       .  S
S311        H314   1.408       .  S
S312        H313   1.408       .  S
C317        C318   1.405       .  A
C317        C322   1.415       .  A
C318        C319   1.401       .  A
C318        H327   1.084       .  S
C319        C320   1.414       .  A
C319        S323   1.803       .  S
C320        C321   1.400       .  A
C321        C322   1.394       .  A
C321        H328   1.084       .  S
C322        S324   1.802       .  S
S323        H918   1.405       .  S
S324        H325   1.408       .  S
H326        S915   1.405       .  S
C329        C330   1.406       .  A
C329        C334   1.412       .  A
C330        C331   1.399       .  A
C330        H339   1.083       .  S
C331        C332   1.412       .  A
C331        S335   1.801       .  S
C332        C333   1.405       .  A
C333        C334   1.399       .  A
C333        H340   1.083       .  S
C334        S336   1.801       .  S
S335        H338   1.403       .  S
S336        H337   1.407       .  S
C341        C342   1.405       .  A
C341        C346   1.412       .  A
C342        C343   1.399       .  A
C342        H351   1.084       .  S
C343        C344   1.417       .  A
C343        S347   1.802       .  S
C344        C345   1.409       .  A
C345        C346   1.402       .  A
C345        H352   1.084       .  S
C346        S348   1.801       .  S
S347        H350   1.408       .  S
S348        H349   1.408       .  S
C353        C354   1.410       .  A
C353        C950   1.416   1_554  A
C354        C355   1.401       .  A
C354        H363   1.084       .  S
C355        C948   1.412       .  A
C355        S359   1.803       .  S
C356        C357   1.406       .  A
C356        C947   1.412       .  A
C357        C358   1.400       .  A
C357        H364   1.084       .  S
C358        C945   1.416       .  A
C358        S360   1.801       .  S
S359        H362   1.407       .  S
S360        H361   1.408       .  S
C365        C366   1.408       .  A
C365        C370   1.417       .  A
C366        C367   1.399       .  A
C366        H375   1.083       .  S
C367        C368   1.413       .  A
C367        S371   1.802       .  S
C368        C369   1.406       .  A
C369        C370   1.401       .  A
C369        H968   1.083       .  S
C370        S964   1.801       .  S
S371        H374   1.407       .  S
S372        C962   1.801   1_554  S
S372        H373   1.407       .  S
H376        C961   1.083   1_554  S
C377        C378   1.401       .  A
C377        C382   1.413       .  A
C378        C379   1.397       .  A
C378        H387   1.085       .  S
C379        C380   1.417       .  A
C379        S975   1.804       .  S
C380        C381   1.404       .  A
C381        C382   1.402       .  A
C381        H388   1.082       .  S
C382        S384   1.802       .  S
S383        C971   1.804       .  S
S383        H386   1.408       .  S
S384        H385   1.407       .  S
C389        C390   1.400       .  A
C389        C394   1.413       .  A
C390        C391   1.396       .  A
C390        H399   1.084       .  S
C391        C392   1.418       .  A
C391        S395   1.803       .  S
C392        C393   1.406       .  A
C393        C394   1.398       .  A
C393        H400   1.084       .  S
C394        S396   1.804       .  S
S395        H398   1.408       .  S
S396        H397   1.408       .  S
C401        C402   1.408       .  A
C401        C406   1.416       .  A
C402        C403   1.399       .  A
C402        H411   1.084       .  S
C403        C404   1.412       .  A
C403        S407   1.803       .  S
C404        C405   1.408       .  A
C405        C406   1.403       .  A
C405        H412   1.083       .  S
C406        S408   1.802       .  S
S407        H410   1.408       .  S
S408        H409   1.408       .  S
C413        C414   1.402       .  A
C413        C418   1.413       .  A
C414        C415   1.403       .  A
C414        H423   1.083       .  S
C415        C416   1.415       .  A
C415        S419   1.802       .  S
C416        C417   1.405       .  A
C417        C418   1.399       .  A
C417        H424   1.083       .  S
C418        S420   1.800       .  S
S419        H422   1.403       .  S
S420        H421   1.407       .  S
C425        C426   1.404       .  A
C425        C430   1.415       .  A
C426        C427   1.397       .  A
C426        H435   1.084       .  S
C427        C428   1.415       .  A
C427        S431   1.797       .  S
C428        C429   1.411       .  A
C429        C430   1.404       .  A
C429        H436   1.084       .  S
C430        S432   1.803       .  S
S431        H434   1.407       .  S
S432        H433   1.408       .  S
C437        C438   1.405       .  A
C437        C442   1.411       .  A
C438        C439   1.401       .  A
C438        H447   1.084       .  S
C439        C440   1.415       .  A
C439        S443   1.803       .  S
C440        C441   1.407       .  A
C441        C442   1.399       .  A
C441        H448   1.084       .  S
C442        S444   1.800       .  S
S443        H446   1.408       .  S
S444        H445   1.408       .  S
C449        C450   1.403       .  A
C449        C454   1.411       .  A
C450        C451   1.403       .  A
C450        H459   1.082       .  S
C451        C452   1.411       .  A
C451        S455   1.801       .  S
C452        C453   1.405       .  A
C453        C454   1.399       .  A
C453        H460   1.083       .  S
C454        S456   1.798       .  S
S455        H458   1.406       .  S
S456        H457   1.407       .  S
C461        C462   1.402       .  A
C461        C466   1.415       .  A
C462        C463   1.400       .  A
C462        H471   1.084       .  S
C463        C464   1.417       .  A
C463        S467   1.802       .  S
C464        C465   1.404       .  A
C465        C466   1.401       .  A
C465        H472   1.081       .  S
C466        S468   1.804       .  S
S467        H470   1.408       .  S
S468        H469   1.407       .  S
C473        C474   1.407       .  A
C473        C478   1.419       .  A
C474        C475   1.403       .  A
C474        H483   1.084       .  S
C475        C476   1.417       .  A
C475       S1071   1.803   1_554  S
C476        C477   1.402       .  A
C477        C478   1.399       .  A
C477        H484   1.083       .  S
C478        S480   1.800       .  S
S479       C1067   1.803       .  S
S479        H482   1.408       .  S
S480        H481   1.407       .  S
C485        C486   1.406       .  A
C485       C1082   1.415       .  A
C486        C487   1.398       .  A
C486        H495   1.083       .  S
C487       C1080   1.411       .  A
C487        S491   1.798       .  S
C488        C489   1.402       .  A
C488       C1079   1.411   1_554  A
C489        C490   1.400       .  A
C489        H496   1.083       .  S
C490       C1077   1.415   1_554  A
C490        S492   1.791       .  S
S491        H494   1.407       .  S
S492        H493   1.408       .  S
C497        C498   1.408       .  A
C497        C502   1.413       .  A
C498        C499   1.405       .  A
C498        H507   1.084       .  S
C499        C500   1.417       .  A
C499        S503   1.802       .  S
C500        C501   1.409       .  A
C501        C502   1.400       .  A
C501        H508   1.083       .  S
C502        S504   1.803       .  S
S503        H506   1.408       .  S
S504        H505   1.408       .  S
C509        C510   1.406       .  A
C509        C514   1.419       .  A
C510        C511   1.403       .  A
C510        H519   1.084       .  S
C511        C512   1.414       .  A
C511        S515   1.804       .  S
C512        C513   1.399       .  A
C513        C514   1.398       .  A
C513        H520   1.084       .  S
C514        S516   1.802       .  S
S515        H518   1.407   1_455  S
S516        H517   1.408       .  S
C521        C522   1.403       .  A
C521        C526   1.413       .  A
C522        C523   1.400       .  A
C522        H531   1.083       .  S
C523        C524   1.413       .  A
C523        S527   1.805       .  S
C524        C525   1.403       .  A
C525        C526   1.402       .  A
C525        H532   1.083       .  S
C526        S528   1.804       .  S
S527        H530   1.406       .  S
S528        H529   1.406       .  S
C533        C534   1.402       .  A
C533        C538   1.413       .  A
C534        C535   1.400       .  A
C534        H543   1.084       .  S
C535        C536   1.421       .  A
C535        S539   1.802       .  S
C536        C537   1.408       .  A
C537        C538   1.402       .  A
C537        H544   1.084       .  S
C538        S540   1.803       .  S
S539        H542   1.408       .  S
S540        H541   1.407       .  S
C545        C546   1.405       .  A
C545        C550   1.417       .  A
C546        C547   1.401       .  A
C546        H555   1.084       .  S
C547        C548   1.414       .  A
C547        S551   1.804       .  S
C548        C549   1.400       .  A
C549        C550   1.397       .  A
C549        H556   1.084       .  S
C550       S1144   1.803   1_554  S
S551        H554   1.407       .  S
S552       C1142   1.803       .  S
S552        H553   1.408       .  S
C557        C558   1.408       .  A
C557       C1154   1.413   1_554  A
C558        C559   1.402       .  A
C558        H567   1.084       .  S
C559       C1152   1.415   1_554  A
C559        S563   1.801       .  S
C560        C561   1.408       .  A
C560       C1151   1.415       .  A
C561        C562   1.397       .  A
C561        H568   1.084       .  S
C562       C1149   1.413       .  A
C562        S564   1.800       .  S
S563        H566   1.408       .  S
S564        H565   1.405       .  S
C569        C570   1.402       .  A
C569        C574   1.418       .  A
C570        C571   1.397       .  A
C570        H579   1.085       .  S
C571        C572   1.414       .  A
C571        S575   1.800       .  S
C572        C573   1.402       .  A
C573        C574   1.402       .  A
C573        H580   1.084       .  S
C574        S576   1.804       .  S
S575        H578   1.408       .  S
S576        H577   1.403       .  S
C581        C582   1.406       .  A
C581        C586   1.419       .  A
C582        C583   1.401       .  A
C582        H591   1.082       .  S
C583        C584   1.414       .  A
C583        S587   1.804       .  S
C584        C585   1.403       .  A
C585        C586   1.400       .  A
C585        H592   1.084       .  S
C586        S588   1.802       .  S
S587       H1182   1.407       .  S
S588        H589   1.407       .  S
H590       S1179   1.407       .  S
In593       O595   2.225   1_655  S
In593       O596   2.259       .  S
In593       O604   2.239       .  S
In593       O601   2.254       .  S
In593       O602   2.238   1_655  S
In593       O605   2.215       .  S
C594        O602   1.261       .  A
C594       C1149   1.485       .  S
O595        C603   1.258       .  A
O596        C603   1.265   1_655  A
C597        O598   1.264       .  A
C597       C1176   1.480       .  S
C599        O601   1.266       .  A
C599        O605   1.261       .  A
C599       C1164   1.479       .  S
C603       C1137   1.481       .  S
In606       O608   2.247   1_655  S
In606       O609   2.261       .  S
In606       O617   2.250       .  S
In606       O611   2.258       .  S
In606       O613   2.259       .  S
In606       O614   2.242       .  S
In606       O615   2.257   1_655  S
In606       O618   2.238       .  S
C607        O613   1.261   1_455  A
C607        O615   1.258       .  A
C607       C1089   1.488       .  S
O608        C616   1.258   1_455  A
O609        C616   1.262       .  A
C610        O617   1.260       .  A
C610        O611   1.261       .  A
C610       C1113   1.477       .  S
C612        O614   1.265       .  A
C612        O618   1.264       .  A
C612       C1125   1.481       .  S
C616       C1104   1.479   1_655  S
In619       O621   2.233       .  S
In619       O622   2.260       .  S
In619       O630   2.238       .  S
In619       O624   2.240       .  S
In619       O626   2.257       .  S
In619       O627   2.256       .  S
In619       O628   2.234       .  S
In619       O631   2.239       .  S
C620        O626   1.264       .  A
C620        O628   1.259       .  A
C620       C1065   1.492       .  S
O621        C629   1.258       .  A
O622        C629   1.264       .  A
C623        O630   1.262       .  A
C623        O624   1.264       .  A
C623       C1080   1.477       .  S
C625        O627   1.265       .  A
C625        O631   1.260       .  A
C625       C1128   1.493       .  S
C629       C1056   1.486       .  S
In632       O634   2.244       .  S
In632       O635   2.251       .  S
In632       O643   2.228       .  S
In632       O637   2.243       .  S
In632       O639   2.242       .  S
In632       O640   2.250       .  S
In632       O641   2.230       .  S
In632       O644   2.239       .  S
C633        O639   1.265       .  A
C633        O641   1.261       .  A
C633       C1032   1.484       .  S
O634        C642   1.261       .  A
O635        C642   1.265       .  A
C636        O643   1.262       .  A
C636        O637   1.265       .  A
C636       C1041   1.476       .  S
C638        O640   1.266       .  A
C638        O644   1.261       .  A
C638       C1173   1.488       .  S
C642       C1020   1.493       .  S
In645       O647   2.230   1_545  S
In645       O648   2.242   1_545  S
In645       O656   2.232       .  S
In645       O650   2.248       .  S
In645       O652   2.260   1_545  S
In645       O653   2.230       .  S
In645       O654   2.227   1_545  S
In645       O657   2.237       .  S
C646        O652   1.264       .  A
C646        O654   1.260       .  A
C646        C993   1.490       .  S
O647        C655   1.259       .  A
O648        C655   1.262       .  A
C649        O656   1.259       .  A
C649        O650   1.265       .  A
C649       C1161   1.478       .  S
C651        O653   1.263       .  A
C651        O657   1.264       .  A
C651       C1008   1.485       .  S
C655        C981   1.473       .  S
In658       O660   2.223   1_545  S
In658       O669   2.242       .  S
In658       O663   2.245       .  S
In658       O665   2.252   1_545  S
In658       O667   2.230   1_546  S
In658       O670   2.214   1_556  S
C659        O665   1.265       .  A
C659        O667   1.261   1_556  A
C659        C960   1.483       .  S
O660        C668   1.261   1_556  A
C662        O669   1.261       .  A
C662        O663   1.263       .  A
C662       C1116   1.476       .  S
C664        O666   1.267       .  A
C664        C972   1.479       .  S
C668        C948   1.483       .  S
In671       O673   2.221       .  S
In671       O674   2.251       .  S
In671       O682   2.237       .  S
In671       O676   2.227       .  S
In671       O678   2.237       .  S
In671       O679   2.248       .  S
In671       O680   2.224       .  S
In671       O683   2.223       .  S
C672        O678   1.265       .  A
C672        O680   1.262       .  A
C672        C921   1.479       .  S
O673        C681   1.261       .  A
O674        C681   1.267       .  A
C675        O682   1.263       .  A
C675        O676   1.265       .  A
C675        C969   1.476       .  S
C677        O679   1.268       .  A
C677        O683   1.261       .  A
C677       C1044   1.481       .  S
C681        C933   1.484       .  S
In684       O686   2.236       .  S
In684       O687   2.247       .  S
In684       O695   2.236       .  S
In684       O689   2.243       .  S
In684       O691   2.258       .  S
In684       O692   2.241       .  S
In684       O693   2.220       .  S
In684       O696   2.246       .  S
C685        O691   1.263       .  A
C685        O693   1.258       .  A
C685        C909   1.478       .  S
O686        C694   1.262       .  A
O687        C694   1.261       .  A
C688        O695   1.262       .  A
C688        O689   1.262       .  A
C688       C1077   1.487       .  S
C690        O692   1.261       .  A
C690        O696   1.261       .  A
C690       C1005   1.480       .  S
C694        C897   1.485       .  S
In697       O699   2.231       .  S
In697       O700   2.244       .  S
In697       O708   2.218       .  S
In697       O702   2.237       .  S
In697       O704   2.250       .  S
In697       O705   2.251       .  S
In697       O706   2.234       .  S
In697       O709   2.216       .  S
C698        O704   1.261       .  A
C698        O706   1.259       .  A
C698        C924   1.477       .  S
O699        C707   1.260       .  A
O700        C707   1.264       .  A
C701        O708   1.260       .  A
C701        O702   1.264       .  A
C701        C873   1.468       .  S
C703        O705   1.265       .  A
C703        O709   1.260       .  A
C703        C888   1.482       .  S
C707       C1140   1.473       .  S
In710       O712   2.237       .  S
In710       O713   2.248       .  S
In710       O721   2.235       .  S
In710       O715   2.252       .  S
In710       O717   2.268       .  S
In710       O718   2.230       .  S
In710       O719   2.239       .  S
In710       O722   2.232       .  S
C711        O717   1.264       .  A
C711        O719   1.260       .  A
C711       C1092   1.495       .  S
O712        C720   1.261       .  A
O713        C720   1.261       .  A
C714        O721   1.260       .  A
C714        O715   1.265       .  A
C714        C864   1.478       .  S
C716        O718   1.264       .  A
C716        O722   1.262       .  A
C716        C852   1.475       .  S
C720        C900   1.488       .  S
In723       O725   2.239       .  S
In723       O726   2.255       .  S
In723       O734   2.225       .  S
In723       O728   2.252       .  S
In723       O730   2.248       .  S
In723       O731   2.257       .  S
In723       O732   2.236       .  S
In723       O735   2.229       .  S
C724        O730   1.265       .  A
C724        O732   1.262       .  A
C724       C1053   1.480       .  S
O725        C733   1.260       .  A
O726        C733   1.264       .  A
C727        O734   1.260       .  A
C727        O728   1.264       .  A
C727        C837   1.477       .  S
C729        O731   1.266       .  A
C729        O735   1.262       .  A
C729        C861   1.485       .  S
C733        C996   1.485       .  S
In736       O738   2.226       .  S
In736       O739   2.260       .  S
In736       O747   2.248       .  S
In736       O741   2.243       .  S
In736       O743   2.258       .  S
In736       O744   2.252       .  S
In736       O745   2.229       .  S
In736       O748   2.227       .  S
C737        O743   1.263       .  A
C737        O745   1.260       .  A
C737        C957   1.489       .  S
O738        C746   1.261       .  A
O739        C746   1.264       .  A
C740        O747   1.261       .  A
C740        O741   1.264       .  A
C740        C885   1.484       .  S
C742        O744   1.264       .  A
C742        O748   1.259       .  A
C742        C825   1.480       .  S
C746       C1017   1.486       .  S
In749       O751   2.241   1_565  S
In749       O752   2.247   1_565  S
In749       O760   2.216       .  S
In749       O754   2.256       .  S
In749       O756   2.258   1_565  S
In749       O757   2.249       .  S
In749       O758   2.220   1_565  S
In749       O761   2.231       .  S
C750        O756   1.267       .  A
C750        O758   1.260       .  A
C750       C1101   1.486       .  S
O751        C759   1.263       .  A
O752        C759   1.264       .  A
C753        O760   1.257       .  A
C753        O754   1.266       .  A
C753        C828   1.486       .  S
C755        O757   1.264       .  A
C755        O761   1.259       .  A
C755        C813   1.482       .  S
C759        C936   1.491       .  S
In762       O764   2.233   1_565  S
In762       O765   2.232   1_565  S
In762       O773   2.221       .  S
In762       O770   2.240       .  S
In762       O771   2.216   1_565  S
In762       O774   2.224       .  S
C763        O771   1.259       .  A
C763       C1152   1.488       .  S
O764        C772   1.261       .  A
O765        C772   1.264       .  A
C766        O767   1.267       .  A
C766        C840   1.482       .  S
C768        O770   1.264       .  A
C768        O774   1.261       .  A
C768        C801   1.474       .  S
C772        C912   1.472       .  S
In775       O777   2.241   1_455  S
In775       O778   2.248   1_455  S
In775       O786   2.219       .  S
In775       O783   2.247       .  S
In775       O784   2.225   1_455  S
In775       O787   2.236       .  S
C776        O784   1.260       .  A
C776        C945   1.490       .  S
O777        C785   1.260       .  A
O778        C785   1.265       .  A
C779        O780   1.266       .  A
C779        C849   1.481       .  S
C781        O783   1.265       .  A
C781        O787   1.261       .  A
C781        C816   1.486       .  S
C785       C1068   1.486       .  S
In788       O790   2.219   1_455  S
In788       O791   2.248   1_455  S
In788       O799   2.233       .  S
In788       O793   2.240       .  S
In788       O795   2.253   1_455  S
In788       O796   2.235       .  S
In788       O797   2.241   1_455  S
In788       O800   2.232       .  S
C789        O795   1.261       .  A
C789        O797   1.257       .  A
C789       C1029   1.478       .  S
O790        C798   1.257       .  A
O791        C798   1.262       .  A
C792        O799   1.261       .  A
C792        O793   1.264       .  A
C792        C804   1.485       .  S
C794        O796   1.261       .  A
C794        O800   1.260       .  A
C794        C876   1.467       .  S
C798        C984   1.480       .  S
C801        C802   1.402       .  A
C801        C806   1.413       .  A
C802        C803   1.399       .  A
C802        H811   1.084       .  S
C803        C804   1.418       .  A
C803        S807   1.800       .  S
C804        C805   1.405       .  A
C805        C806   1.397       .  A
C805        H812   1.081       .  S
C806        S808   1.805       .  S
S807        H810   1.407       .  S
S808        H809   1.406       .  S
C813        C814   1.402       .  A
C813        C818   1.417       .  A
C814        C815   1.398       .  A
C814        H823   1.084       .  S
C815        C816   1.418       .  A
C815        S819   1.802       .  S
C816        C817   1.405       .  A
C817        C818   1.400       .  A
C817        H824   1.084       .  S
C818        S820   1.803       .  S
S819        H822   1.408       .  S
S820        H821   1.407       .  S
C825        C826   1.402       .  A
C825        C830   1.416       .  A
C826        C827   1.398       .  A
C826        H835   1.084       .  S
C827        C828   1.421       .  A
C827        S831   1.802       .  S
C828        C829   1.404       .  A
C829        C830   1.398       .  A
C829        H836   1.084       .  S
C830        S832   1.800       .  S
S831        H834   1.407       .  S
S832        H833   1.402       .  S
C837        C838   1.401       .  A
C837        C842   1.414       .  A
C838        C839   1.399       .  A
C838        H847   1.084       .  S
C839        C840   1.419       .  A
C840        C841   1.404       .  A
C841        C842   1.398       .  A
C841        H848   1.085       .  S
C842        S844   1.804       .  S
S843        H846   1.405       .  S
S844        H845   1.408       .  S
C849        C850   1.404       .  A
C849        C854   1.416       .  A
C850        C851   1.400       .  A
C850        H859   1.081       .  S
C851        C852   1.415       .  A
C851        S855   1.804       .  S
C852        C853   1.401       .  A
C853        C854   1.395       .  A
C853        H860   1.085       .  S
S855        H858   1.407       .  S
S856        H857   1.408       .  S
C861        C862   1.405       .  A
C861        C866   1.415       .  A
C862        C863   1.399       .  A
C862        H871   1.084       .  S
C863        C864   1.411       .  A
C863        S867   1.800       .  S
C864        C865   1.404       .  A
C865        C866   1.402       .  A
C865        H872   1.084       .  S
C866        S868   1.797       .  S
S867        H870   1.407       .  S
S868        H869   1.407       .  S
C873        C874   1.402       .  A
C873        C878   1.411       .  A
C874        C875   1.395       .  A
C874        H883   1.084       .  S
C875        C876   1.412       .  A
C875        S879   1.801       .  S
C876        C877   1.402       .  A
C877        C878   1.397       .  A
C877        H884   1.084       .  S
C878        S880   1.802       .  S
S879        H882   1.406       .  S
S880        H881   1.407       .  S
C885        C890   1.418       .  A
C886        C887   1.397       .  A
C886        H895   1.084       .  S
C887        C888   1.416       .  A
C887        S891   1.803       .  S
C888        C889   1.404       .  A
C890        S892   1.802       .  S
S891        H894   1.408       .  S
S892        H893   1.402       .  S
C897        C898   1.406       .  A
C897        C902   1.415       .  A
C898        C899   1.399       .  A
C898        H907   1.085       .  S
C899        C900   1.417       .  A
C899        S903   1.802       .  S
C900        C901   1.407       .  A
C901        C902   1.400       .  A
C901        H908   1.085       .  S
C902        S904   1.802       .  S
S903        H906   1.408       .  S
S904        H905   1.408       .  S
C909        C910   1.405       .  A
C909        C914   1.415       .  A
C910        C911   1.401       .  A
C910        H919   1.084       .  S
C911        C912   1.414       .  A
C911        S915   1.803   1_556  S
C912        C913   1.400       .  A
C913        C914   1.394       .  A
C913        H920   1.084       .  S
C914        S916   1.802       .  S
S916        H917   1.408       .  S
C921        C922   1.406       .  A
C921        C926   1.412       .  A
C922        C923   1.399       .  A
C922        H931   1.083       .  S
C923        C924   1.412       .  A
C923        S927   1.801       .  S
C924        C925   1.405       .  A
C925        C926   1.399       .  A
C925        H932   1.083       .  S
C926        S928   1.801       .  S
S927        H930   1.403       .  S
S928        H929   1.407       .  S
C933        C934   1.405       .  A
C933        C938   1.412       .  A
C934        C935   1.399       .  A
C934        H943   1.084       .  S
C935        C936   1.417       .  A
C935        S939   1.802       .  S
C936        C937   1.409       .  A
C937        C938   1.402       .  A
C937        H944   1.084       .  S
C938        S940   1.801       .  S
S939        H942   1.408       .  S
S940        H941   1.408       .  S
C945        C946   1.410       .  A
C946        C947   1.401       .  A
C946        H955   1.084       .  S
C947        S951   1.803       .  S
C948        C949   1.406   1_554  A
C949        C950   1.400       .  A
C949        H956   1.084       .  S
C950        S952   1.801       .  S
S951        H954   1.407       .  S
S952        H953   1.408       .  S
C957        C958   1.408       .  A
C957        C962   1.417       .  A
C958        C959   1.399       .  A
C958        H967   1.083       .  S
C959        C960   1.413       .  A
C959        S963   1.802       .  S
C960        C961   1.406       .  A
C961        C962   1.401       .  A
S963        H966   1.407       .  S
S964        H965   1.407       .  S
C969        C970   1.401       .  A
C969        C974   1.413       .  A
C970        C971   1.397       .  A
C970        H979   1.085       .  S
C971        C972   1.417       .  A
C972        C973   1.404       .  A
C973        C974   1.402       .  A
C973        H980   1.082       .  S
C974        S976   1.802       .  S
S975        H978   1.408       .  S
S976        H977   1.407       .  S
C981        C982   1.400       .  A
C981        C986   1.413       .  A
C982        C983   1.396       .  A
C982        H991   1.084       .  S
C983        C984   1.418       .  A
C983        S987   1.803       .  S
C984        C985   1.406       .  A
C985        C986   1.398       .  A
C985        H992   1.084       .  S
C986        S988   1.804       .  S
S987        H990   1.408       .  S
S988        H989   1.408       .  S
C993        C994   1.408       .  A
C993        C998   1.416       .  A
C994        C995   1.399       .  A
C994       H1003   1.084       .  S
C995        C996   1.412       .  A
C995        S999   1.803       .  S
C996        C997   1.408       .  A
C997        C998   1.403       .  A
C997       H1004   1.083       .  S
C998       S1000   1.802       .  S
S999       H1002   1.408       .  S
S1000      H1001   1.408       .  S
C1005      C1006   1.402       .  A
C1005      C1010   1.413       .  A
C1006      C1007   1.403       .  A
C1006      H1015   1.083       .  S
C1007      C1008   1.415       .  A
C1007      S1011   1.802       .  S
C1008      C1009   1.405       .  A
C1009      C1010   1.399       .  A
C1009      H1016   1.083       .  S
C1010      S1012   1.800       .  S
S1011      H1014   1.403       .  S
S1012      H1013   1.407       .  S
C1017      C1018   1.404       .  A
C1017      C1022   1.415       .  A
C1018      C1019   1.397       .  A
C1018      H1027   1.084       .  S
C1019      C1020   1.415       .  A
C1019      S1023   1.797       .  S
C1020      C1021   1.411       .  A
C1021      C1022   1.404       .  A
C1021      H1028   1.084       .  S
C1022      S1024   1.803       .  S
S1023      H1026   1.407       .  S
S1024      H1025   1.408       .  S
C1029      C1030   1.405       .  A
C1029      C1034   1.411       .  A
C1030      C1031   1.401       .  A
C1030      H1039   1.084       .  S
C1031      C1032   1.415       .  A
C1031      S1035   1.803       .  S
C1032      C1033   1.407       .  A
C1033      C1034   1.399       .  A
C1033      H1040   1.084       .  S
C1034      S1036   1.800       .  S
S1035      H1038   1.408       .  S
S1036      H1037   1.408       .  S
C1041      C1042   1.403       .  A
C1041      C1046   1.411       .  A
C1042      C1043   1.403       .  A
C1042      H1051   1.082       .  S
C1043      C1044   1.411       .  A
C1043      S1047   1.801       .  S
C1044      C1045   1.405       .  A
C1045      C1046   1.398       .  A
C1045      H1052   1.083       .  S
C1046      S1048   1.798       .  S
S1047      H1050   1.406       .  S
S1048      H1049   1.407       .  S
C1053      C1054   1.402       .  A
C1053      C1058   1.415       .  A
C1054      C1055   1.400       .  A
C1054      H1063   1.084       .  S
C1055      C1056   1.417       .  A
C1055      S1059   1.802       .  S
C1056      C1057   1.404       .  A
C1057      C1058   1.401       .  A
C1057      H1064   1.081       .  S
C1058      S1060   1.804       .  S
S1059      H1062   1.408       .  S
S1060      H1061   1.407       .  S
C1065      C1066   1.407       .  A
C1065      C1070   1.419       .  A
C1066      C1067   1.403       .  A
C1066      H1075   1.084       .  S
C1067      C1068   1.417       .  A
C1068      C1069   1.402       .  A
C1069      C1070   1.399       .  A
C1069      H1076   1.083       .  S
C1070      S1072   1.800       .  S
S1071      H1074   1.408       .  S
S1072      H1073   1.407       .  S
C1077      C1078   1.406       .  A
C1078      C1079   1.398       .  A
C1078      H1087   1.083       .  S
C1079      S1083   1.798       .  S
C1080      C1081   1.401       .  A
C1081      C1082   1.400       .  A
C1081      H1088   1.083       .  S
C1082      S1084   1.791       .  S
S1083      H1086   1.407       .  S
S1084      H1085   1.408       .  S
C1089      C1090   1.408       .  A
C1089      C1094   1.413       .  A
C1090      C1091   1.405       .  A
C1090      H1099   1.084       .  S
C1091      C1092   1.417       .  A
C1091      S1095   1.802       .  S
C1092      C1093   1.409       .  A
C1093      C1094   1.400       .  A
C1093      H1100   1.083       .  S
C1094      S1096   1.803       .  S
S1095      H1098   1.408       .  S
S1096      H1097   1.408       .  S
C1101      C1102   1.406       .  A
C1101      C1106   1.419       .  A
C1102      C1103   1.403       .  A
C1102      H1111   1.084       .  S
C1103      C1104   1.414       .  A
C1103      S1107   1.804       .  S
C1104      C1105   1.399       .  A
C1105      C1106   1.398       .  A
C1105      H1112   1.084       .  S
C1106      S1108   1.802       .  S
S1107      H1110   1.407   1_455  S
S1108      H1109   1.408       .  S
C1113      C1114   1.403       .  A
C1113      C1118   1.413       .  A
C1114      C1115   1.400       .  A
C1114      H1123   1.083       .  S
C1115      C1116   1.413       .  A
C1115      S1119   1.805       .  S
C1116      C1117   1.403       .  A
C1117      C1118   1.402       .  A
C1117      H1124   1.083       .  S
C1118      S1120   1.804       .  S
S1119      H1122   1.406       .  S
S1120      H1121   1.406       .  S
C1125      C1126   1.402       .  A
C1125      C1130   1.413       .  A
C1126      C1127   1.400       .  A
C1126      H1135   1.084       .  S
C1127      C1128   1.421       .  A
C1127      S1131   1.802       .  S
C1128      C1129   1.408       .  A
C1129      C1130   1.402       .  A
C1129      H1136   1.084       .  S
C1130      S1132   1.803       .  S
S1131      H1134   1.408       .  S
S1132      H1133   1.407       .  S
C1137      C1138   1.405       .  A
C1137      C1142   1.417       .  A
C1138      C1139   1.401       .  A
C1138      H1147   1.084       .  S
C1139      C1140   1.414       .  A
C1139      S1143   1.804       .  S
C1140      C1141   1.400       .  A
C1141      C1142   1.397       .  A
C1141      H1148   1.084       .  S
S1143      H1146   1.407       .  S
S1144      H1145   1.408   1_556  S
C1149      C1150   1.408       .  A
C1150      C1151   1.402       .  A
C1150      H1159   1.084       .  S
C1151      S1155   1.801       .  S
C1152      C1153   1.408       .  A
C1153      C1154   1.397       .  A
C1153      H1160   1.084       .  S
C1154      S1156   1.800       .  S
S1155      H1158   1.408       .  S
S1156      H1157   1.405       .  S
C1161      C1162   1.402       .  A
C1161      C1166   1.418       .  A
C1162      C1163   1.397       .  A
C1162      H1171   1.085       .  S
C1163      C1164   1.414       .  A
C1163      S1167   1.800       .  S
C1164      C1165   1.402       .  A
C1165      C1166   1.402       .  A
C1165      H1172   1.084       .  S
C1166      S1168   1.804       .  S
S1167      H1170   1.408       .  S
S1168      H1169   1.403       .  S
C1173      C1174   1.406       .  A
C1173      C1178   1.419       .  A
C1174      C1175   1.401       .  A
C1174      H1183   1.082       .  S
C1175      C1176   1.414       .  A
C1175      S1179   1.804   1_556  S
C1176      C1177   1.403       .  A
C1177      C1178   1.400       .  A
C1177      H1184   1.084       .  S
C1178      S1180   1.802       .  S
S1180      H1181   1.407       .  S
