geometry optimzed in LAMMPS
_audit_creation_date              2020-11-30 
_audit_creation_method            'lammps2cif' 
_symmetry_space_group_name_H-M    'P1' 
_symmetry_Int_Tables_number       1 
_symmetry_cell_setting            triclinic 
loop_ 
_symmetry_equiv_pos_as_xyz 
  x,y,z 
_cell_length_a                    37.5321273 
_cell_length_b                    36.74073558965848 
_cell_length_c                    43.09537725657267 
_cell_angle_alpha                 87.7997792838757 
_cell_angle_beta                  89.19962416248256 
_cell_angle_gamma                 90.32224197851524 
loop_ 
_atom_site_label 
_atom_site_type_symbol 
_atom_site_fract_x 
_atom_site_fract_y 
_atom_site_fract_z 
_atom_site_charge 
Zr1        Zr  0.78157908  0.15838030  0.43304255     2.17500
O2          O  0.78958664  0.20706175  0.39348603    -0.52000
O3          O  0.72374535  0.13400860  0.41918407    -0.75200
O4          O  0.78521153  0.12982347  0.38134116    -0.82000
O5          O  0.76009393  0.22177994  0.99816555    -0.83700
O6          O  0.82017855  0.07941717  0.38493808    -0.79400
O7          O  0.74700227  0.21374218  0.44658420    -0.91000
O8          O  0.71959936  0.08425200  0.45180601    -0.77000
O9          O  0.77844693  0.09467715  0.44542616    -0.86400
O10         O  0.75918674  0.14924457  0.98591709    -0.86100
O11         O  0.84172299  0.13575258  0.42826623    -0.72900
O12         O  0.82484327  0.18610907  0.46625110    -0.85000
Zr13       Zr  0.85720188  0.08164030  0.02404106     2.26400
Zr14       Zr  0.83668554  0.07149595  0.43858305     2.06300
Zr15       Zr  0.80331808  0.17519327  0.01797228     2.10000
Zr16       Zr  0.75590525  0.08617416  0.99789871     1.78800
O17         O  0.83964523  0.22968021  0.02322239    -0.93800
O18         O  0.70681760  0.04314771  0.50428592    -0.41600
O19         O  0.79942382  0.11062648  0.03060290    -0.78300
O20         O  0.81200996  0.05903490  0.99007791    -0.97000
O21         O  0.87980699  0.09535214  0.47266079    -0.90300
O22         O  0.86157163  0.14718406  0.01500978    -0.93100
C23         C  0.70995610  0.10324080  0.42794982     1.00600
C24         C  0.74496689  0.23097547  0.97216186     1.13600
C25         C  0.80091513  0.10204493  0.36949711     1.04400
O26         O  0.80582190  0.01851125  0.41974326    -0.95300
O27         O  0.86197368  0.01536443  0.45732424    -0.91000
O28         O  0.85965288  0.01431672  0.00983511    -0.84100
C29         C  0.85992286  0.99945369  0.48409779     1.11000
O30         O  0.89742660  0.21175973  0.42943088    -0.97200
Zr31       Zr  0.88350084  0.15963400  0.46428010     1.88900
O32         O  0.92369592  0.08340485  0.02402103    -0.73900
O33         O  0.89086387  0.06376065  0.40776774    -0.53100
O34         O  0.92659426  0.15140292  0.42239243    -0.97800
O35         O  0.91014448  0.20805844  0.99054278    -0.55000
O36         O  0.93653742  0.12677709  0.98661684    -0.74400
C37         C  0.94608153  0.10198813  0.00669567     0.97900
O38         O  0.86060523  0.04138148  0.07020611    -0.63200
O39         O  0.76358015  0.19386941  0.05965061    -0.58000
O40         O  0.85087609  0.11017411  0.07590562    -0.94700
O41         O  0.81713780  0.16174828  0.07163182    -0.93100
O42         O  0.72094343  0.11753755  0.03655700    -0.93500
O43         O  0.75735706  0.03077906  0.03103723    -0.92300
C44         C  0.83472726  0.13795377  0.08749424     1.16800
H45         H  0.73581211  0.15973273  0.98827904     0.32700
H46         H  0.80544228  0.03384798  0.99321040     0.43600
H47         H  0.87747359  0.15753420  0.02984005     0.37100
H48         H  0.85057997  0.14070051  0.40737112     0.33600
H49         H  0.68699234  0.05210854  0.00644371     0.25400
H50         H  0.90977399  0.05866681  0.42310292     0.31300
H51         H  0.91579132  0.13303615  0.40914523     0.37200
H52         H  0.72999058  0.10810440  0.05677520     0.31700
H53         H  0.76771067  0.22038526  0.06116170     0.30600
H54         H  0.83106018  0.24702876  0.00687386     0.32200
H55         H  0.89100120  0.22990604  0.48982392     0.31200
H56         H  0.76371783  0.03923475  0.05179812     0.35200
H57         H  0.83980588  0.02480602  0.06903022     0.27900
H58         H  0.80813738  0.19807841  0.37917150     0.32200
H59         H  0.87463209  0.21757467  0.41912164     0.35000
H60         H  0.73917028  0.19171202  0.05147380     0.27600
H61         H  0.88160306  0.02578822  0.06670981     0.40500
H62         H  0.79181048  0.00905530  0.43796086     0.30600
H63         H  0.70974624  0.02572629  0.48747767     0.38200
H64         H  0.92580014  0.19695988  0.00655063     0.30000
H65         H  0.88733561  0.04036999  0.39750742     0.30100
H66         H  0.80160757  0.22685551  0.40436662     0.30400
Zr67       Zr  0.85450894  0.08496045  0.26863927     2.17500
O68         O  0.89373743  0.06120084  0.30934090    -0.52000
O69         O  0.84878301  0.01690104  0.25686285    -0.75200
O70         O  0.82764793  0.08422528  0.32199519    -0.82000
O71         O  0.92942090  0.11664722  0.22094281    -0.83700
O72         O  0.77231935  0.10863163  0.32039000    -0.79400
O73         O  0.91990726  0.08999386  0.26856374    -0.91000
O74         O  0.84702451  0.01307521  0.20504604    -0.77000
O75         O  0.79860128  0.06326243  0.25188137    -0.86400
O76         O  0.86360220  0.07997555  0.21410674    -0.86100
O77         O  0.81537244  0.13566916  0.27949018    -0.72900
O78         O  0.86163800  0.14383419  0.24500900    -0.85000
Zr79       Zr  0.77590497  0.16337737  0.18519056     2.26400
Zr80       Zr  0.75854884  0.11155196  0.26476465     2.06300
Zr81       Zr  0.87598498  0.14004430  0.19346949     2.10000
Zr82       Zr  0.80642770  0.06014942  0.19648432     1.78800
O83         O  0.90471780  0.19966308  0.18838678    -0.93800
O84         O  0.76863623  0.00892699  0.21398716    -0.41600
O85         O  0.82013960  0.11884344  0.17648078    -0.78300
O86         O  0.76288814  0.10353974  0.20932451    -0.97000
O87         O  0.76896585  0.17028232  0.23981623    -0.90300
O88         O  0.83237496  0.18763982  0.20010384    -0.93100
C89         C  0.84846880  0.99796737  0.23169982     1.00600
C90         C  0.94082482  0.10103202  0.24636458     1.13600
C91         C  0.79949054  0.09685830  0.33542599     1.04400
O92         O  0.73548416  0.04948525  0.26855132    -0.95300
O93         O  0.70500892  0.13758848  0.24176906    -0.91000
O94         O  0.71411584  0.14403946  0.19022001    -0.84100
C95         C  0.69507297  0.13323228  0.21388105     1.11000
O96         O  0.86774609  0.21336962  0.29190822    -0.97200
Zr97       Zr  0.82426490  0.19385526  0.25435357     1.88900
O98         O  0.75708333  0.22623061  0.19440884    -0.73900
O99         O  0.70935631  0.12608631  0.29992050    -0.53100
O100        O  0.80310391  0.21366022  0.30470543    -0.97800
O101        O  0.85788863  0.24640862  0.23368941    -0.55000
O102        O  0.77014951  0.23281035  0.24477901    -0.74400
C103        C  0.75183192  0.24164510  0.22034624     0.97900
O104        O  0.74521269  0.18491449  0.13848978    -0.63200
O105        O  0.92381704  0.12958085  0.15614638    -0.58000
O106        O  0.80486466  0.15597404  0.13340890    -0.94700
O107        O  0.86107112  0.13365225  0.13814777    -0.93100
O108        O  0.82962126  0.04981244  0.14450687    -0.93500
O109        O  0.76575857  0.04335497  0.15566979    -0.92300
C110        C  0.83399496  0.14312343  0.12162064     1.16800
H111        H  0.88345457  0.06444593  0.20930522     0.32700
H112        H  0.74227116  0.09073750  0.20208820     0.43600
H113        H  0.83775270  0.21012770  0.18858900     0.37100
H114        H  0.81851341  0.14402548  0.29990530     0.33600
H115        H  0.74388048  0.01713849  0.21049829     0.25400
H116        H  0.70797081  0.10650351  0.31635941     0.31300
H117        H  0.79845833  0.24004400  0.30157337     0.37200
H118        H  0.85484618  0.05778370  0.14497295     0.31700
H119        H  0.94470812  0.14287195  0.16387251     0.30600
H120        H  0.90355900  0.20635147  0.16593696     0.32200
H121        H  0.88328963  0.24029831  0.23671009     0.31200
H122        H  0.75218491  0.06575713  0.15052974     0.35200
H123        H  0.73500865  0.16274234  0.12960327     0.27900
H124        H  0.88132337  0.03942200  0.31856976     0.32200
H125        H  0.88147815  0.19114058  0.29729259     0.35000
H126        H  0.92971974  0.10347351  0.15925887     0.27600
H127        H  0.72421873  0.19839621  0.14599202     0.40500
H128        H  0.73994698  0.04121914  0.29028698     0.30600
H129        H  0.77266516  0.98996381  0.19862422     0.38200
H130        H  0.85297790  0.26558559  0.24866371     0.30000
H131        H  0.71691242  0.14814721  0.31063376     0.30100
H132        H  0.89361907  0.07913073  0.32594046     0.30400
Zr133      Zr  0.62936872  0.27983687  0.50270897     2.17500
O134        O  0.65404370  0.24538526  0.04929973    -0.52000
O135        O  0.69233681  0.26132060  0.49632453    -0.75200
O136        O  0.61272177  0.21691158  0.49628487    -0.82000
O137        O  0.59955303  0.35960413  0.05195368    -0.83700
O138        O  0.59513054  0.21117894  0.44612874    -0.79400
O139        O  0.61641508  0.30015194  0.05519946    -0.91000
O140        O  0.70846584  0.28238572  0.44829734    -0.77000
O141        O  0.64547452  0.27904121  0.44904043    -0.86400
O142        O  0.65549973  0.33888439  0.49281231    -0.86100
O143        O  0.57510228  0.27083844  0.47409392    -0.72900
O144        O  0.58381459  0.32385155  0.51007076    -0.85000
Zr145      Zr  0.56687260  0.37114278  0.41756033     2.26400
Zr146      Zr  0.59204007  0.27153840  0.41998209     2.06300
Zr147      Zr  0.60783998  0.38226841  0.49812319     2.10000
Zr148      Zr  0.67030322  0.33750090  0.43904444     1.78800
O149        O  0.59619532  0.42957610  0.03416085    -0.93800
O150        O  0.69672224  0.32383140  0.38877899    -0.41600
O151        O  0.61985793  0.37431705  0.44655504    -0.78300
O152        O  0.61753653  0.33108300  0.40956487    -0.97000
O153        O  0.54298724  0.31209706  0.42940030    -0.90300
O154        O  0.55337180  0.37352590  0.47163960    -0.93100
C155        C  0.71291169  0.26050177  0.47217676     1.00600
C156        C  0.60355694  0.32896200  0.06739953     1.13600
C157        C  0.60034168  0.19864835  0.47408751     1.04400
O158        O  0.62918634  0.23248972  0.38875546    -0.95300
O159        O  0.59250390  0.29188522  0.36489728    -0.91000
O160        O  0.57709854  0.35177511  0.36354800    -0.84100
C161        C  0.58767704  0.32271646  0.35024090     1.11000
O162        O  0.51580286  0.26905109  0.02540126    -0.97200
Zr163      Zr  0.53017007  0.31367074  0.48404369     1.88900
O164        O  0.49829830  0.36497770  0.42146238    -0.73900
O165        O  0.53912514  0.24128095  0.40109703    -0.53100
O166        O  0.48533024  0.27861810  0.45742636    -0.97800
O167        O  0.50224369  0.33046444  0.53280517    -0.55000
O168        O  0.48809876  0.35886754  0.47254205    -0.74400
C169        C  0.47645800  0.36288648  0.44538674     0.97900
O170        O  0.55026496  0.41835072  0.37898939    -0.63200
O171        O  0.67144156  0.41000572  0.00738161    -0.58000
O172        O  0.57323816  0.43742415  0.42214912    -0.94700
O173        O  0.59274758  0.44063984  0.47148174    -0.93100
O174        O  0.71852869  0.36754578  0.46566986    -0.93500
O175        O  0.69623403  0.38833069  0.40833032    -0.92300
C176        C  0.58208460  0.45570601  0.44562972     1.16800
H177        H  0.67539402  0.34284479  0.50626392     0.32700
H178        H  0.62896078  0.33508028  0.38965533     0.43600
H179        H  0.53818584  0.39384403  0.47615227     0.37100
H180        H  0.56163586  0.24951140  0.48055441     0.33600
H181        H  0.72196988  0.31818235  0.39315217     0.25400
H182        H  0.52705891  0.26002309  0.38795920     0.31300
H183        H  0.48739164  0.25334423  0.46598654     0.37200
H184        H  0.73925354  0.35128843  0.46322383     0.31700
H185        H  0.67111969  0.43392263  0.99600398     0.30600
H186        H  0.61313730  0.45000242  0.03003125     0.32200
H187        H  0.47627397  0.32902934  0.52921708     0.31200
H188        H  0.68750948  0.41038760  0.41844899     0.35200
H189        H  0.56870776  0.41863675  0.36231623     0.27900
H190        H  0.67551051  0.25827221  0.05641605     0.32200
H191        H  0.53185115  0.26191717  0.53514356     0.35000
H192        H  0.67094216  0.41593759  0.02960525     0.27600
H193        H  0.52849377  0.40890117  0.36926889     0.40500
H194        H  0.65087887  0.22828954  0.40117397     0.30600
H195        H  0.68606739  0.30014769  0.38357377     0.38200
H196        H  0.50731976  0.35682355  0.53422386     0.30000
H197        H  0.54846384  0.22370645  0.38618957     0.30100
H198        H  0.66324537  0.22209072  0.04169454     0.30400
Zr199      Zr  0.63516130  0.28066843  0.25269587     2.17500
O200        O  0.65733762  0.24811658  0.29882751    -0.52000
O201        O  0.69931211  0.26532989  0.24569797    -0.75200
O202        O  0.61828066  0.21827714  0.24614840    -0.82000
O203        O  0.59567771  0.35706389  0.30219558    -0.83700
O204        O  0.62553873  0.22007456  0.19469001    -0.79400
O205        O  0.61285421  0.29764995  0.30457566    -0.91000
O206        O  0.71546354  0.29095550  0.19910373    -0.77000
O207        O  0.65093183  0.28253116  0.19859366    -0.86400
O208        O  0.65856985  0.34096289  0.24362007    -0.86100
O209        O  0.58046405  0.26974716  0.22399335    -0.72900
O210        O  0.58831681  0.32295510  0.25956639    -0.85000
Zr211      Zr  0.56891509  0.37199399  0.16846954     2.26400
Zr212      Zr  0.59720088  0.27344459  0.16990596     2.06300
Zr213      Zr  0.60958627  0.38264682  0.24919410     2.10000
Zr214      Zr  0.67338529  0.34239203  0.18986855     1.78800
O215        O  0.58702722  0.42713306  0.28491922    -0.93800
O216        O  0.70192509  0.33177224  0.13981676    -0.41600
O217        O  0.62173419  0.37720159  0.19743234    -0.78300
O218        O  0.62100229  0.33389805  0.16019229    -0.97000
O219        O  0.54693518  0.31205050  0.17969386    -0.90300
O220        O  0.55525204  0.37255886  0.22256453    -0.93100
C221        C  0.72098290  0.26831628  0.22220969     1.00600
C222        C  0.59932415  0.32602724  0.31708088     1.13600
C223        C  0.61469375  0.20371686  0.21999279     1.04400
O224        O  0.61608877  0.23209854  0.13007770    -0.95300
O225        O  0.59862909  0.29531142  0.11532267    -0.91000
O226        O  0.58065830  0.35436796  0.11407080    -0.84100
C227        C  0.59251440  0.32586597  0.10069273     1.11000
O228        O  0.51051287  0.26396309  0.26962029    -0.97200
Zr229      Zr  0.53446740  0.31170333  0.23447259     1.88900
O230        O  0.50038134  0.36613707  0.17382946    -0.73900
O231        O  0.54179920  0.23994304  0.16352426    -0.53100
O232        O  0.48937769  0.27387690  0.21097166    -0.97800
O233        O  0.51611260  0.33004244  0.28602534    -0.55000
O234        O  0.48985390  0.35488756  0.22462445    -0.74400
C235        C  0.47853827  0.36219589  0.19769069     0.97900
O236        O  0.54759869  0.41664268  0.12960905    -0.63200
O237        O  0.66638670  0.41017443  0.26241190    -0.58000
O238        O  0.57495154  0.43806536  0.17300452    -0.94700
O239        O  0.59344575  0.44094475  0.22266843    -0.93100
O240        O  0.71850381  0.37529000  0.21801559    -0.93500
O241        O  0.69811642  0.39459082  0.16016889    -0.92300
C242        C  0.58313897  0.45616436  0.19671604     1.16800
H243        H  0.67834217  0.34487331  0.25721523     0.32700
H244        H  0.63272065  0.33880693  0.14052193     0.43600
H245        H  0.53923877  0.39207313  0.22744512     0.37100
H246        H  0.56774613  0.24744519  0.22907405     0.33600
H247        H  0.72726866  0.32710339  0.14459067     0.25400
H248        H  0.53562540  0.24462917  0.14147449     0.31300
H249        H  0.46631951  0.28571215  0.21536460     0.37200
H250        H  0.73826856  0.35776171  0.22078196     0.31700
H251        H  0.66333857  0.43659281  0.25815556     0.30600
H252        H  0.60825931  0.44080603  0.29144153     0.32200
H253        H  0.48978611  0.33109453  0.28547570     0.31200
H254        H  0.67720699  0.40969733  0.15467730     0.35200
H255        H  0.56698941  0.42050774  0.11398204     0.27900
H256        H  0.67903469  0.26158821  0.30462264     0.32200
H257        H  0.52878850  0.26090953  0.28585737     0.35000
H258        H  0.66735840  0.40750521  0.28533817     0.27600
H259        H  0.52848116  0.40396287  0.11855711     0.40500
H260        H  0.64246147  0.23298028  0.13037782     0.30600
H261        H  0.69249399  0.30789507  0.13372581     0.38200
H262        H  0.52372844  0.35583241  0.28678452     0.30000
H263        H  0.54866369  0.21398536  0.16475096     0.30100
H264        H  0.66624470  0.22457327  0.29150545     0.30400
Zr265      Zr  0.43904063  0.93501090  0.40387651     2.17500
O266        O  0.38720113  0.95198010  0.37315729    -0.52000
O267        O  0.43792475  0.87069363  0.39256296    -0.75200
O268        O  0.45471988  0.94523470  0.34862397    -0.82000
O269        O  0.38621832  0.91815297  0.47851541    -0.83700
O270        O  0.50968954  0.97127127  0.34599381    -0.79400
O271        O  0.38193115  0.91611441  0.42592576    -0.91000
O272        O  0.46678678  0.83972715  0.43047764    -0.77000
O273        O  0.49919385  0.91510942  0.39970197    -0.86400
O274        O  0.45243530  0.90309723  0.45164684    -0.86100
O275        O  0.47259502  0.99056641  0.39813418    -0.72900
O276        O  0.42717761  0.97570876  0.44535826    -0.85000
Zr277      Zr  0.52750667  0.98387205  0.97772494     2.26400
Zr278      Zr  0.53331707  0.96998295  0.39692045     2.06300
Zr279      Zr  0.43359101  0.95158518  0.99496821     2.10000
Zr280      Zr  0.51197817  0.88227209  0.44702902     1.78800
O281        O  0.40497810  0.99718938  0.02616823    -0.93800
O282        O  0.54490415  0.84811960  0.40871724    -0.41600
O283        O  0.49181953  0.92963610  0.98201653    -0.78300
O284        O  0.54861848  0.93624601  0.44338145    -0.97000
O285        O  0.52130571  0.00970470  0.43772212    -0.90300
O286        O  0.47638164  0.99744203  0.48763717    -0.93100
C287        C  0.44003650  0.84405347  0.41253037     1.00600
C288        C  0.36983457  0.91046408  0.45369846     1.13600
C289        C  0.48154380  0.95961479  0.33356973     1.04400
O290        O  0.58256364  0.92889353  0.38652620    -0.95300
O291        O  0.56284305  0.02424352  0.41118069    -0.91000
O292        O  0.58790245  0.00621456  0.45628561    -0.84100
C293        C  0.58818266  0.02480742  0.43032989     1.11000
O294        O  0.41305416  0.05359686  0.40998523    -0.97200
Zr295      Zr  0.46229217  0.02985002  0.44070642     1.88900
O296        O  0.53371372  0.04353442  0.99875424    -0.73900
O297        O  0.57501497  0.99668462  0.35813922    -0.53100
O298        O  0.48298775  0.07733319  0.40366699    -0.97800
O299        O  0.41751221  0.05961219  0.47222842    -0.55000
O300        O  0.49718544  0.07096694  0.47119677    -0.74400
C301        C  0.52282710  0.06925420  0.49064907     0.97900
O302        O  0.58338811  0.95959578  0.99773506    -0.63200
O303        O  0.41118460  0.91288970  0.03822470    -0.58000
O304        O  0.52210654  0.96575370  0.03270952    -0.94700
O305        O  0.47170686  0.93136947  0.03642451    -0.93100
O306        O  0.48943664  0.84693303  0.97607627    -0.93500
O307        O  0.54840505  0.86443261  0.94501874    -0.92300
C308        C  0.49960240  0.94522466  0.04800484     1.16800
H309        H  0.43612258  0.88355162  0.45713132     0.32700
H310        H  0.57351289  0.92977973  0.44366579     0.43600
H311        H  0.46952289  0.01702579  0.01093107     0.37100
H312        H  0.46638795  0.00417525  0.37939267     0.33600
H313        H  0.53779573  0.82240570  0.41308785     0.25400
H314        H  0.57722827  0.97894069  0.34151026     0.31300
H315        H  0.47599627  0.10045117  0.41306603     0.37200
H316        H  0.49197137  0.82413019  0.96474616     0.31700
H317        H  0.38720037  0.92220275  0.04337447     0.30600
H318        H  0.41791617  0.99610337  0.04604880     0.32200
H319        H  0.42115457  0.08596050  0.46747020     0.31200
H320        H  0.55830408  0.87617914  0.96334240     0.35200
H321        H  0.59472157  0.94764428  0.97993500     0.27900
H322        H  0.38588731  0.93380853  0.35681410     0.32200
H323        H  0.40517876  0.03276764  0.39781897     0.35000
H324        H  0.40694288  0.88865452  0.02975055     0.27600
H325        H  0.59855019  0.98119214  0.00112876     0.40500
H326        H  0.60414598  0.94186224  0.39330762     0.30600
H327        H  0.53386017  0.85458779  0.38854270     0.38200
H328        H  0.42553555  0.05605834  0.49390170     0.30000
H329        H  0.56255310  0.01779473  0.34839565     0.30100
H330        H  0.39379811  0.97516709  0.36201214     0.30400
Zr331      Zr  0.45331983  0.92138527  0.14934243     2.17500
O332        O  0.40455860  0.92994717  0.11326955    -0.52000
O333        O  0.46292472  0.85665420  0.14509552    -0.75200
O334        O  0.47614668  0.92510978  0.09621914    -0.82000
O335        O  0.38749140  0.91886738  0.21460773    -0.83700
O336        O  0.53006915  0.95392389  0.09470764    -0.79400
O337        O  0.39450756  0.89887021  0.16570647    -0.91000
O338        O  0.48341712  0.83325791  0.18990022    -0.77000
O339        O  0.51450269  0.90546555  0.15561035    -0.86400
O340        O  0.45899862  0.90012426  0.20196242    -0.86100
O341        O  0.48599374  0.97719698  0.13986758    -0.72900
O342        O  0.43276487  0.97006312  0.18053674    -0.85000
Zr343      Zr  0.53230132  0.98586614  0.23244334     2.26400
Zr344      Zr  0.54753501  0.96103534  0.14818490     2.06300
Zr345      Zr  0.43974619  0.94828325  0.23279822     2.10000
Zr346      Zr  0.51970643  0.88278412  0.20788109     1.78800
O347        O  0.39613300  0.99546088  0.24244737    -0.93800
O348        O  0.56251080  0.84686477  0.17909485    -0.41600
O349        O  0.50028013  0.93035242  0.24084491    -0.78300
O350        O  0.55440033  0.93748815  0.20070901    -0.97000
O351        O  0.52745665  0.00849112  0.18022384    -0.90300
O352        O  0.47212727  0.00364404  0.22523307    -0.93100
C353        C  0.46020467  0.83419941  0.16834045     1.00600
C354        C  0.37682922  0.90160342  0.19124066     1.13600
C355        C  0.50301619  0.93991509  0.08166286     1.04400
O356        O  0.59589686  0.91718572  0.14668769    -0.95300
O357        O  0.58649528  0.00998885  0.16392494    -0.91000
O358        O  0.59297254  0.99328431  0.21394169    -0.84100
C359        C  0.60104824  0.01378247  0.19026524     1.11000
O360        O  0.42698412  0.06463023  0.19960744    -0.97200
Zr361      Zr  0.46736827  0.02460162  0.17239392     1.88900
O362        O  0.53133121  0.05201500  0.23188075    -0.73900
O363        O  0.58420224  0.98562086  0.10501679    -0.53100
O364        O  0.41727048  0.04099510  0.13952910    -0.97800
O365        O  0.48434749  0.05964760  0.12527875    -0.55000
O366        O  0.50835801  0.07155323  0.18592529    -0.74400
C367        C  0.52727760  0.07606908  0.20983345     0.97900
O368        O  0.56896433  0.99317278  0.27820727    -0.63200
O369        O  0.41500416  0.90801585  0.27408598    -0.58000
O370        O  0.51013421  0.97324739  0.28551735    -0.94700
O371        O  0.45231411  0.95480317  0.28634428    -0.93100
O372        O  0.50287255  0.84799575  0.25511306    -0.93500
O373        O  0.56875823  0.86283847  0.24075774    -0.92300
C374        C  0.48111075  0.96296513  0.29972797     1.16800
H375        H  0.44332555  0.88010268  0.20774615     0.33100
H376        H  0.57892409  0.93148637  0.20493806     0.43600
H377        H  0.46491193  0.02156416  0.23986325     0.37100
H378        H  0.48191336  0.98710559  0.11919560     0.33600
H379        H  0.55504173  0.82124162  0.18330905     0.25400
H380        H  0.57927020  0.01209398  0.10384989     0.31300
H381        H  0.41855205  0.02386924  0.12235471     0.37200
H382        H  0.47843903  0.85621059  0.26008045     0.31700
H383        H  0.38976177  0.91519578  0.27651341     0.30600
H384        H  0.38208615  0.98587895  0.26061409     0.32200
H385        H  0.51060316  0.05738595  0.12381974     0.31200
H386        H  0.57613172  0.88488932  0.25157410     0.35200
H387        H  0.59366318  0.98690773  0.27224590     0.27900
H388        H  0.40826042  0.91128415  0.09769380     0.32200
H389        H  0.44209416  0.07755578  0.21433967     0.35000
H390        H  0.41424721  0.88355106  0.26525726     0.27600
H391        H  0.56950700  0.01967832  0.28157774     0.40500
H392        H  0.61737329  0.93120808  0.15216114     0.30600
H393        H  0.55719532  0.85155148  0.15687358     0.38200
H394        H  0.48020977  0.08539348  0.13020209     0.30000
H395        H  0.60918711  0.98369160  0.11194216     0.30100
H396        H  0.40989132  0.95335432  0.10197055     0.30400
Zr397      Zr  0.36363891  0.59530524  0.41042080     2.17500
O398        O  0.39107320  0.55380509  0.37413527    -0.52000
O399        O  0.43179978  0.60161462  0.41708514    -0.75200
O400        O  0.35174686  0.61047593  0.35478056    -0.82000
O401        O  0.33634159  0.52605545  0.46786422    -0.83700
O402        O  0.33504037  0.66968385  0.35118646    -0.79400
O403        O  0.35674996  0.52925838  0.41812052    -0.91000
O404        O  0.44002418  0.61427803  0.46697033    -0.77000
O405        O  0.38417860  0.65611253  0.41599288    -0.86400
O406        O  0.37650188  0.59586825  0.46433154    -0.86100
O407        O  0.31065898  0.63197214  0.39965850    -0.72900
O408        O  0.31070490  0.58930338  0.44071341    -0.85000
Zr409      Zr  0.29667848  0.68730040  0.48942506     2.26400
Zr410      Zr  0.33299683  0.69289130  0.40345371     2.06300
Zr411      Zr  0.32252881  0.58444748  0.49262920     2.10000
Zr412      Zr  0.39588433  0.65788307  0.47056324     1.78800
O413        O  0.26840417  0.55445878  0.51263767    -0.93800
O414        O  0.44055621  0.69239929  0.44010943    -0.41600
O415        O  0.34274497  0.64462668  0.49749738    -0.78300
O416        O  0.34969004  0.69863045  0.45701047    -0.97000
O417        O  0.28072205  0.68347235  0.43592063    -0.90300
O418        O  0.27344566  0.62631909  0.48545231    -0.93100
C419        C  0.45245082  0.60630219  0.44089097     1.00600
C420        C  0.34709462  0.51092554  0.44266672     1.13600
C421        C  0.34087407  0.63886055  0.33912979     1.04400
O422        O  0.38441557  0.73144756  0.39030670    -0.95300
O423        O  0.29889952  0.74329879  0.42223013    -0.91000
O424        O  0.30800504  0.75086396  0.47206837    -0.84100
C425        C  0.31158894  0.76222250  0.44357778     1.11000
O426        O  0.23618757  0.57942761  0.39644981    -0.97200
Zr427      Zr  0.25877881  0.62364286  0.43218110     1.88900
O428        O  0.23185295  0.69688386  0.48835081    -0.73900
O429        O  0.30587719  0.73269117  0.36387007    -0.53100
O430        O  0.22418348  0.64037484  0.38646749    -0.97800
O431        O  0.22076106  0.58124203  0.46265971    -0.55000
O432        O  0.21521401  0.67314071  0.44321010    -0.74400
C433        C  0.20985988  0.69460624  0.46593776     0.97900
O434        O  0.27691818  0.72202610  0.53360091    -0.63200
O435        O  0.34933967  0.54349958  0.53142147    -0.58000
O436        O  0.31772189  0.66727867  0.04186968    -0.94700
O437        O  0.33602346  0.60811479  0.04365956    -0.93100
O438        O  0.42151401  0.64715024  0.52168926    -0.93500
O439        O  0.41178537  0.70789083  0.50330526    -0.92300
C440        C  0.33164014  0.63908219  0.05622482     1.16800
H441        H  0.39233831  0.57627002  0.47033051     0.32700
H442        H  0.36143686  0.72138829  0.45996160     0.43600
H443        H  0.25357190  0.62182824  0.49957527     0.37100
H444        H  0.29919947  0.62671530  0.38058621     0.33600
H445        H  0.43110978  0.71749481  0.43860075     0.25400
H446        H  0.32405169  0.73679633  0.34721329     0.31300
H447        H  0.23916874  0.65852663  0.37468776     0.37200
H448        H  0.41294774  0.62254292  0.52850509     0.31700
H449        H  0.35408764  0.52714709  0.03103974     0.30600
H450        H  0.26664056  0.56166679  0.53451715     0.32200
H451        H  0.22145943  0.55792979  0.45189817     0.31200
H452        H  0.38906223  0.71506327  0.51324791     0.35200
H453        H  0.29850859  0.73449550  0.54087761     0.27900
H454        H  0.40793505  0.56901870  0.36128713     0.32200
H455        H  0.25545890  0.56128890  0.39482128     0.35000
H456        H  0.37247921  0.53649131  0.52216926     0.27600
H457        H  0.26212599  0.74196074  0.52470597     0.40500
H458        H  0.38811899  0.72891192  0.36769794     0.30600
H459        H  0.46126022  0.69399437  0.45398114     0.38200
H460        H  0.19628848  0.59045660  0.45951768     0.30000
H461        H  0.28685347  0.71807095  0.35451687     0.30100
H462        H  0.37233978  0.54646313  0.35962343     0.30400
Zr463      Zr  0.36587282  0.59457702  0.15915844     2.17500
O464        O  0.38646953  0.55113670  0.12132473    -0.52000
O465        O  0.43394272  0.60124424  0.16496529    -0.75200
O466        O  0.35484213  0.61361395  0.10386981    -0.82000
O467        O  0.33790416  0.52501471  0.21577039    -0.83700
O468        O  0.33766332  0.67280509  0.10186809    -0.79400
O469        O  0.36058746  0.52838348  0.16678642    -0.91000
O470        O  0.44083428  0.60475679  0.21608545    -0.77000
O471        O  0.38953590  0.65325268  0.16793364    -0.86400
O472        O  0.37778824  0.59131835  0.21334728    -0.86100
O473        O  0.31522001  0.63435449  0.14950748    -0.72900
O474        O  0.31226371  0.59013025  0.18874827    -0.85000
Zr475      Zr  0.30125302  0.68681218  0.23930096     2.26400
Zr476      Zr  0.34107265  0.69368213  0.15526668     2.06300
Zr477      Zr  0.32273329  0.58269508  0.24070501     2.10000
Zr478      Zr  0.40018758  0.65127126  0.22299885     1.78800
O479        O  0.26670738  0.55221461  0.25483376    -0.93800
O480        O  0.44997859  0.68683087  0.20022474    -0.41600
O481        O  0.34541869  0.64182313  0.24871841    -0.78300
O482        O  0.35671896  0.69515556  0.20937148    -0.97000
O483        O  0.28660315  0.68588198  0.18534943    -0.90300
O484        O  0.27601274  0.62706716  0.23352475    -0.93100
C485        C  0.45413618  0.60225140  0.18942986     1.00600
C486        C  0.34997192  0.51001001  0.19100007     1.13600
C487        C  0.34324976  0.64234684  0.08894731     1.04400
O488        O  0.39939030  0.72169296  0.14628230    -0.95300
O489        O  0.31228751  0.74565570  0.17841922    -0.91000
O490        O  0.32115587  0.74967829  0.22849781    -0.84100
C491        C  0.32669039  0.76205570  0.20070692     1.11000
O492        O  0.24062404  0.57955239  0.14665037    -0.97200
Zr493      Zr  0.26208242  0.62689827  0.18001374     1.88900
O494        O  0.23701923  0.70094330  0.23477786    -0.73900
O495        O  0.32600522  0.74089160  0.11625728    -0.53100
O496        O  0.23456725  0.64580057  0.13116650    -0.97800
O497        O  0.21727401  0.59115659  0.20981542    -0.55000
O498        O  0.21924238  0.67672407  0.19007058    -0.74400
C499        C  0.21449007  0.69835682  0.21268346     0.97900
O500        O  0.28129565  0.72286899  0.28257819    -0.63200
O501        O  0.34670377  0.54045927  0.28003764    -0.58000
O502        O  0.32006119  0.66520322  0.29168648    -0.94700
O503        O  0.33346831  0.60476113  0.29328972    -0.93100
O504        O  0.41110539  0.63153474  0.27660620    -0.93500
O505        O  0.42879875  0.69478896  0.25608920    -0.92300
C506        C  0.33080818  0.63583113  0.30617112     1.16800
H507        H  0.39189921  0.57021581  0.21896056     0.32700
H508        H  0.37064139  0.71651189  0.21344387     0.43600
H509        H  0.25587077  0.62293821  0.24742214     0.37100
H510        H  0.30331005  0.62981765  0.13045971     0.33600
H511        H  0.45357399  0.67813979  0.17896594     0.25400
H512        H  0.34539016  0.74116685  0.10041628     0.31300
H513        H  0.24775782  0.66813171  0.12418015     0.37200
H514        H  0.40739670  0.60481212  0.27706795     0.31700
H515        H  0.33586331  0.51648796  0.27606624     0.30600
H516        H  0.26455659  0.53256837  0.23986368     0.32200
H517        H  0.20647299  0.57390139  0.19555597     0.31200
H518        H  0.45274237  0.68486963  0.26060332     0.35200
H519        H  0.30316902  0.73452119  0.29022566     0.27900
H520        H  0.40419993  0.56459858  0.10798763     0.32200
H521        H  0.26245241  0.56945201  0.13720444     0.35000
H522        H  0.37216315  0.53790598  0.27422806     0.27600
H523        H  0.26765405  0.74333004  0.27310289     0.40500
H524        H  0.40894204  0.71015513  0.12753786     0.30600
H525        H  0.44070596  0.71185834  0.19704853     0.38200
H526        H  0.19799639  0.60864641  0.21407565     0.30000
H527        H  0.30458628  0.73205821  0.10560799     0.30100
H528        H  0.36616410  0.54647161  0.10754209     0.30400
Zr529      Zr  0.16099752  0.80704140  0.43644132     2.17500
O530        O  0.19632284  0.78999326  0.39128409    -0.52000
O531        O  0.17677330  0.74220298  0.44043149    -0.75200
O532        O  0.22163721  0.82401083  0.44827196    -0.82000
O533        O  0.08516668  0.83943245  0.38403933    -0.83700
O534        O  0.22332447  0.81235612  0.00112592    -0.79400
O535        O  0.14433707  0.82606473  0.38351000    -0.91000
O536        O  0.15894179  0.72571350  0.48904201    -0.77000
O537        O  0.16104436  0.78955905  0.49016465    -0.86400
O538        O  0.10325806  0.77978658  0.44478139    -0.86100
O539        O  0.16957386  0.86245097  0.46448451    -0.72900
O540        O  0.11722453  0.85260283  0.42643988    -0.85000
Zr541      Zr  0.07351117  0.86847297  0.01668760     2.26400
Zr542      Zr  0.16974951  0.84219937  0.01882235     2.06300
Zr543      Zr  0.06008529  0.82773340  0.43741784     2.10000
Zr544      Zr  0.10514948  0.76209138  0.99949435     1.78800
O545        O  0.01765913  0.84928636  0.39868902    -0.93800
O546        O  0.12166753  0.73259937  0.04881596    -0.41600
O547        O  0.06755224  0.81439319  0.48932392    -0.78300
O548        O  0.11147850  0.81611591  0.02820613    -0.97000
O549        O  0.13142019  0.89256408  0.00607131    -0.90300
O550        O  0.06816143  0.88335658  0.46321945    -0.93100
C551        C  0.17923957  0.72143731  0.46489466     1.00600
C552        C  0.11574114  0.83685210  0.36988586     1.13600
C553        C  0.23924089  0.83129045  0.47268184     1.04400
O554        O  0.20850231  0.82457677  0.06157476    -0.95300
O555        O  0.14799126  0.84343073  0.07243871    -0.91000
O556        O  0.08976247  0.85968082  0.07149220    -0.84100
C557        C  0.11788516  0.84927832  0.08592331     1.11000
O558        O  0.17242024  0.92680365  0.41359737    -0.97200
Zr559      Zr  0.12640242  0.90743199  0.45125183     1.88900
O560        O  0.08043345  0.93784393  0.01096483    -0.73900
O561        O  0.20382848  0.89847467  0.02248172    -0.53100
O562        O  0.16438459  0.95388123  0.97436466    -0.97800
O563        O  0.10069074  0.93044101  0.40268966    -0.55000
O564        O  0.08868146  0.94946598  0.95998670    -0.74400
C565        C  0.08364260  0.96052497  0.98703606     0.97900
O566        O  0.02760875  0.88790821  0.05326447    -0.63200
O567        O  0.03139994  0.77037140  0.42537023    -0.58000
O568        O  0.00916891  0.86373000  0.01141447    -0.94700
O569        O  0.00317611  0.84599614  0.46271707    -0.93100
O570        O  0.07673692  0.71278662  0.47233997    -0.93500
O571        O  0.05588921  0.73679539  0.03091480    -0.92300
C572        C  0.98841824  0.85739964  0.48800580     1.16800
H573        H  0.09973268  0.75957672  0.43145815     0.32700
H574        H  0.10712104  0.80476915  0.04838426     0.43600
H575        H  0.04855888  0.89928220  0.45802827     0.37100
H576        H  0.19128059  0.87583684  0.45978627     0.33600
H577        H  0.12394089  0.70645203  0.04438240     0.25400
H578        H  0.18984023  0.91333415  0.03690777     0.31300
H579        H  0.16850471  0.95233014  0.48943544     0.37200
H580        H  0.09001408  0.69100872  0.47981169     0.31700
H581        H  0.01987642  0.76179203  0.44513651     0.30600
H582        H  0.01802778  0.87613396  0.39998013     0.32200
H583        H  0.07546375  0.92239539  0.40382867     0.31200
H584        H  0.04966941  0.75624478  0.04528946     0.35200
H585        H  0.02454201  0.86813343  0.06939260     0.27900
H586        H  0.18437629  0.76818077  0.38331957     0.32200
H587        H  0.18281992  0.90387578  0.40632037     0.35000
H588        H  0.01131976  0.77735029  0.41176118     0.27600
H589        H  0.03845001  0.90837336  0.06418935     0.40500
H590        H  0.20772873  0.79760884  0.06263501     0.30600
H591        H  0.14641652  0.74088689  0.05221481     0.38200
H592        H  0.11141217  0.91574260  0.38624996     0.30000
H593        H  0.22532578  0.89143654  0.03427486     0.30100
H594        H  0.21908631  0.78070563  0.39969021     0.30400
Zr595      Zr  0.16231800  0.80994928  0.18485057     2.17500
O596        O  0.19942977  0.80129035  0.13872141    -0.52000
O597        O  0.18006472  0.74553367  0.18772128    -0.75200
O598        O  0.22318968  0.82468839  0.19586903    -0.82000
O599        O  0.08487327  0.84336602  0.13370383    -0.83700
O600        O  0.22929364  0.83662739  0.24684017    -0.79400
O601        O  0.14315541  0.82684518  0.13239282    -0.91000
O602        O  0.16295188  0.72770209  0.23623364    -0.77000
O603        O  0.16352312  0.79063708  0.23811474    -0.86400
O604        O  0.10509819  0.78175913  0.19256433    -0.86100
O605        O  0.17129486  0.86394367  0.21432749    -0.72900
O606        O  0.11889347  0.85630120  0.17641460    -0.85000
Zr607      Zr  0.07224750  0.86683861  0.26814132     2.26400
Zr608      Zr  0.16946333  0.84390268  0.26821441     2.06300
Zr609      Zr  0.06199280  0.83001913  0.18699864     2.10000
Zr610      Zr  0.10713039  0.76318442  0.24583378     1.78800
O611        O  0.01799540  0.85666445  0.15203670    -0.93800
O612        O  0.12133314  0.73315998  0.29549852    -0.41600
O613        O  0.06995231  0.81418446  0.23831825    -0.78300
O614        O  0.11215481  0.81554445  0.27672796    -0.97000
O615        O  0.12926570  0.89357938  0.25837093    -0.90300
O616        O  0.07003197  0.88424634  0.21432852    -0.93100
C617        C  0.18336226  0.72454392  0.21201464     1.00600
C618        C  0.11492369  0.83931659  0.11929897     1.13600
C619        C  0.24181822  0.83326269  0.21919852     1.04400
O620        O  0.20701637  0.81003283  0.30457467    -0.95300
O621        O  0.14886984  0.84258258  0.32257325    -0.91000
O622        O  0.09014410  0.85715966  0.32236440    -0.84100
C623        C  0.11862606  0.84711741  0.33641009     1.11000
O624        O  0.17508642  0.93632401  0.17028922    -0.97200
Zr625      Zr  0.12825670  0.90964206  0.20386018     1.88900
O626        O  0.07804155  0.93638304  0.26816161    -0.73900
O627        O  0.19731455  0.90064276  0.28274940    -0.53100
O628        O  0.16169311  0.95566194  0.23063531    -0.97800
O629        O  0.11296342  0.93746165  0.15350918    -0.55000
O630        O  0.08219133  0.94954109  0.21736042    -0.74400
C631        C  0.07975383  0.95996441  0.24483528     0.97900
O632        O  0.02364811  0.86914980  0.30642308    -0.63200
O633        O  0.03236386  0.77437348  0.17182893    -0.58000
O634        O  0.00813127  0.86783498  0.26092374    -0.94700
O635        O  0.00508714  0.84652185  0.21240924    -0.93100
O636        O  0.08172140  0.71377101  0.21683811    -0.93500
O637        O  0.05746893  0.73450842  0.27465673    -0.92300
C638        C  0.99049519  0.85916751  0.23718421     1.16800
H639        H  0.10165660  0.76233831  0.17840193     0.32700
H640        H  0.10868203  0.80365927  0.29684885     0.43600
H641        H  0.04980838  0.89940503  0.20942356     0.37100
H642        H  0.19294945  0.87721529  0.20922430     0.33600
H643        H  0.12419284  0.70714601  0.29082431     0.25400
H644        H  0.19141790  0.90262115  0.30507617     0.31300
H645        H  0.18638585  0.94637486  0.23144326     0.37200
H646        H  0.08455424  0.69168883  0.23046544     0.31700
H647        H  0.03269462  0.75805813  0.19062248     0.30600
H648        H  0.02154913  0.88330233  0.15324999     0.32200
H649        H  0.08755349  0.94417173  0.15549670     0.31200
H650        H  0.03602786  0.74201123  0.26297822     0.35200
H651        H  0.02455528  0.84614325  0.31916510     0.27900
H652        H  0.21804874  0.78374436  0.14526927     0.32200
H653        H  0.18356323  0.91597768  0.15774350     0.35000
H654        H  0.00701055  0.78122384  0.16968487     0.27600
H655        H  0.03014786  0.88857535  0.32067582     0.40500
H656        H  0.20559237  0.78453218  0.29803111     0.30600
H657        H  0.14576575  0.74163161  0.29994608     0.38200
H658        H  0.11304831  0.91726159  0.13895945     0.30000
H659        H  0.22320578  0.89576839  0.28219691     0.30100
H660        H  0.21245943  0.82459732  0.13489446     0.30400
Zr661      Zr  0.79408304  0.78668583  0.43360158     2.17500
O662        O  0.77756251  0.75092365  0.38935069    -0.52000
O663        O  0.72963483  0.77258461  0.43628472    -0.75200
O664        O  0.80872779  0.72310848  0.44349112    -0.82000
O665        O  0.83297697  0.86627366  0.38131948    -0.83700
O666        O  0.82563118  0.71152226  0.00027320    -0.79400
O667        O  0.81600203  0.80661924  0.38183888    -0.91000
O668        O  0.71261028  0.79247609  0.48300895    -0.77000
O669        O  0.77609863  0.78530178  0.48676725    -0.86400
O670        O  0.77071354  0.84677537  0.43987446    -0.86100
O671        O  0.84709913  0.77466089  0.46358468    -0.72900
O672        O  0.84075138  0.83019880  0.42525926    -0.85000
Zr673      Zr  0.86239179  0.86977090  0.01550825     2.26400
Zr674      Zr  0.83412183  0.77235507  0.01881518     2.06300
Zr675      Zr  0.81993730  0.88957551  0.43394067     2.10000
Zr676      Zr  0.75748238  0.84023490  0.99481387     1.78800
O677        O  0.83871192  0.93692975  0.39598987    -0.93800
O678        O  0.72916053  0.82402837  0.04476784    -0.41600
O679        O  0.80645086  0.87986243  0.48551826    -0.78300
O680        O  0.80966851  0.83177776  0.02560069    -0.97000
O681        O  0.88472014  0.81088108  0.00626624    -0.90300
O682        O  0.87350244  0.87715087  0.46111888    -0.93100
C683        C  0.70799863  0.77172910  0.45968806     1.00600
C684        C  0.82928376  0.83541389  0.36799181     1.13600
C685        C  0.81872144  0.70343853  0.46694683     1.04400
O686        O  0.80229664  0.73095182  0.05505192    -0.95300
O687        O  0.83412963  0.79136777  0.07283969    -0.91000
O688        O  0.85126768  0.85077917  0.07051558    -0.84100
C689        C  0.84012221  0.82188547  0.08565793     1.11000
O690        O  0.91362789  0.76941284  0.41711777    -0.97200
Zr691      Zr  0.89356193  0.81656383  0.45135555     1.88900
O692        O  0.93031713  0.86095979  0.01109793    -0.73900
O693        O  0.89059226  0.74588844  0.03472946    -0.53100
O694        O  0.93861655  0.77945657  0.47739710    -0.97800
O695        O  0.91762981  0.83247663  0.39970228    -0.55000
O696        O  0.93982464  0.85771496  0.96009182    -0.74400
C697        C  0.95177371  0.85939503  0.98704771     0.97900
O698        O  0.88168089  0.91384409  0.05306636    -0.63200
O699        O  0.76365519  0.92027761  0.42389118    -0.58000
O700        O  0.86092191  0.93576679  0.00815613    -0.94700
O701        O  0.84235260  0.94645760  0.45738679    -0.93100
O702        O  0.70949783  0.88007078  0.46491092    -0.93500
O703        O  0.73350715  0.89296919  0.02070818    -0.92300
C704        C  0.85418404  0.95900430  0.48311811     1.16800
H705        H  0.75131422  0.85164018  0.42585516     0.32700
H706        H  0.79851224  0.83548043  0.04541676     0.43600
H707        H  0.88960282  0.89716281  0.45602624     0.37100
H708        H  0.86002297  0.75303388  0.45874054     0.33600
H709        H  0.70334867  0.82283803  0.04041235     0.25400
H710        H  0.88514273  0.73307828  0.05487775     0.31300
H711        H  0.92909496  0.75427165  0.47747833     0.37200
H712        H  0.68650033  0.86830551  0.47095411     0.31700
H713        H  0.76591143  0.94376167  0.43422501     0.30600
H714        H  0.86504564  0.93537340  0.39535984     0.32200
H715        H  0.94230367  0.84099371  0.40301392     0.31200
H716        H  0.70740068  0.88906367  0.02240037     0.35200
H717        H  0.86135517  0.91755729  0.06750485     0.27900
H718        H  0.75841096  0.76488988  0.37883685     0.32200
H719        H  0.89292995  0.76517165  0.40369777     0.35000
H720        H  0.76447256  0.92693334  0.40140668     0.27600
H721        H  0.89993877  0.90115674  0.06578708     0.40500
H722        H  0.77699656  0.73308326  0.04906671     0.30600
H723        H  0.73599951  0.79835201  0.04906470     0.38200
H724        H  0.90463201  0.85469549  0.39294328     0.30000
H725        H  0.89478966  0.72611941  0.02015652     0.30100
H726        H  0.76536610  0.72883881  0.39821487     0.30400
Zr727      Zr  0.80019566  0.77812824  0.18776605     2.17500
O728        O  0.78837954  0.73985721  0.14380868    -0.52000
O729        O  0.73553413  0.76520178  0.18968808    -0.75200
O730        O  0.81546210  0.71528530  0.20553617    -0.82000
O731        O  0.83198290  0.85668450  0.13109436    -0.83700
O732        O  0.82967390  0.71369808  0.25674123    -0.79400
O733        O  0.81982135  0.79569988  0.13423642    -0.91000
O734        O  0.71665730  0.78823945  0.23484040    -0.77000
O735        O  0.78243572  0.78113082  0.24089799    -0.86400
O736        O  0.77434921  0.83787923  0.19121826    -0.86100
O737        O  0.85386416  0.77095590  0.21778446    -0.72900
O738        O  0.84400004  0.82403965  0.17640264    -0.85000
Zr739      Zr  0.86179428  0.87379195  0.26355614     2.26400
Zr740      Zr  0.83543430  0.77615481  0.27142519     2.06300
Zr741      Zr  0.82077657  0.88313068  0.18262564     2.10000
Zr742      Zr  0.75803329  0.84009641  0.24430494     1.78800
O743        O  0.84251932  0.92811765  0.14378881    -0.93800
O744        O  0.73039379  0.82574942  0.29485405    -0.41600
O745        O  0.80883942  0.87668764  0.23444960    -0.78300
O746        O  0.81004049  0.83527626  0.27559095    -0.97000
O747        O  0.88524576  0.81487355  0.25675144    -0.90300
O748        O  0.87530946  0.87508882  0.20931590    -0.93100
C749        C  0.71251730  0.76687404  0.21194976     1.00600
C750        C  0.83005047  0.82497877  0.11893663     1.13600
C751        C  0.82532385  0.69835541  0.23084437     1.04400
O752        O  0.79403641  0.74322636  0.30650433    -0.95300
O753        O  0.83730811  0.79997349  0.32383575    -0.91000
O754        O  0.85037235  0.86031803  0.31919488    -0.84100
C755        C  0.84091880  0.83164788  0.33532144     1.11000
O756        O  0.91542512  0.76909129  0.16480152    -0.97200
Zr757      Zr  0.89792949  0.81476832  0.20172403     1.88900
O758        O  0.92956401  0.86536031  0.26019130    -0.73900
O759        O  0.88763352  0.74706365  0.29401274    -0.53100
O760        O  0.94762889  0.78182083  0.22525039    -0.97800
O761        O  0.91923107  0.83358704  0.14985494    -0.55000
O762        O  0.93901517  0.86140156  0.20938210    -0.74400
C763        C  0.95102367  0.86355683  0.23626454     0.97900
O764        O  0.88487924  0.92090954  0.29669987    -0.63200
O765        O  0.76338708  0.90984354  0.16952020    -0.58000
O766        O  0.85521262  0.93874186  0.25567409    -0.94700
O767        O  0.83589296  0.94267641  0.20604204    -0.93100
O768        O  0.71093671  0.87142036  0.21566328    -0.93500
O769        O  0.73398272  0.89368530  0.26854527    -0.92300
C770        C  0.84655763  0.95725879  0.23141944     1.16800
H771        H  0.75460891  0.84087768  0.17722783     0.32700
H772        H  0.79855619  0.83991175  0.29510765     0.43600
H773        H  0.89011044  0.89576433  0.20305577     0.37100
H774        H  0.86671018  0.74871460  0.21460858     0.33600
H775        H  0.70445449  0.82596385  0.29095206     0.25400
H776        H  0.87801347  0.72624556  0.30682032     0.31300
H777        H  0.93773783  0.75764497  0.23173973     0.37200
H778        H  0.69716890  0.85189215  0.20597860     0.31700
H779        H  0.75539782  0.92131876  0.18880485     0.30600
H780        H  0.86767460  0.92141775  0.13995939     0.32200
H781        H  0.94510762  0.83800643  0.15201769     0.31200
H782        H  0.75372071  0.90266129  0.28127043     0.35200
H783        H  0.86667767  0.92514823  0.31302870     0.27900
H784        H  0.76219807  0.73929648  0.14141574     0.32200
H785        H  0.92913600  0.75033304  0.17649167     0.35000
H786        H  0.76923085  0.93063735  0.15501948     0.27600
H787        H  0.90497289  0.90932719  0.30791122     0.40500
H788        H  0.80894350  0.73292159  0.32342182     0.30600
H789        H  0.73599686  0.79976656  0.29921168     0.38200
H790        H  0.90902445  0.85812634  0.14605518     0.30000
H791        H  0.89982546  0.73574768  0.27632867     0.30100
H792        H  0.79463983  0.71466885  0.15050252     0.30400
Zr793      Zr  0.57425803  0.58787353  0.41262306     2.17500
O794        O  0.53206757  0.56014111  0.37766735    -0.52000
O795        O  0.57970001  0.51822804  0.42023797    -0.75200
O796        O  0.59028687  0.59879401  0.35676265    -0.82000
O797        O  0.50702168  0.61793022  0.46551329    -0.83700
O798        O  0.64917008  0.61277751  0.35467472    -0.79400
O799        O  0.51014337  0.59567919  0.41731916    -0.91000
O800        O  0.58556671  0.50921022  0.47146461    -0.77000
O801        O  0.63124253  0.56336547  0.42364264    -0.86400
O802        O  0.57127397  0.57609564  0.46755237    -0.86100
O803        O  0.61325390  0.63997619  0.40025527    -0.72900
O804        O  0.57106830  0.64310442  0.43945285    -0.85000
Zr805      Zr  0.66477963  0.65510598  0.49021909     2.26400
Zr806      Zr  0.67044750  0.61308864  0.40840873     2.06300
Zr807      Zr  0.56334942  0.63269669  0.49185249     2.10000
Zr808      Zr  0.62957789  0.55337042  0.47928169     1.78800
O809        O  0.53523474  0.68979459  0.50503905    -0.93800
O810        O  0.66650921  0.50327018  0.46234009    -0.41600
O811        O  0.62068571  0.60964393  0.50171515    -0.78300
O812        O  0.67257365  0.59830994  0.46354850    -0.97000
O813        O  0.66433555  0.66896544  0.43562507    -0.90300
O814        O  0.60674208  0.68095213  0.48253360    -0.93100
C815        C  0.58126990  0.49665672  0.44497348     1.00600
C816        C  0.49231588  0.60620640  0.44069096     1.13600
C817        C  0.61890604  0.60858428  0.34158575     1.04400
O818        O  0.69478798  0.55246219  0.40233685    -0.95300
O819        O  0.72662792  0.63730709  0.42573812    -0.91000
O820        O  0.72597419  0.63878223  0.47751872    -0.84100
C821        C  0.73984531  0.62821044  0.45197165     1.11000
O822        O  0.56010099  0.71725192  0.39478590    -0.97200
Zr823      Zr  0.60753305  0.69466155  0.42832569     1.88900
O824        O  0.67776005  0.72097660  0.48546296    -0.73900
O825        O  0.71337158  0.63596973  0.36903957    -0.53100
O826        O  0.62365461  0.72316726  0.37805558    -0.97800
O827        O  0.57625271  0.74291114  0.45483142    -0.55000
O828        O  0.65961046  0.73635999  0.43713574    -0.74400
C829        C  0.67924466  0.74211076  0.46101910     0.97900
O830        O  0.70558941  0.67187942  0.03239503    -0.63200
O831        O  0.52206393  0.60519947  0.03069188    -0.58000
O832        O  0.64699927  0.63112270  0.04433509    -0.94700
O833        O  0.58827009  0.61525859  0.04499554    -0.93100
O834        O  0.60896045  0.53242254  0.53082525    -0.93500
O835        O  0.67197707  0.53667659  0.51957372    -0.92300
C836        C  0.61866485  0.61850934  0.05850638     1.16800
H837        H  0.55126394  0.56062068  0.47359700     0.32700
H838        H  0.69369190  0.58507188  0.46893133     0.43600
H839        H  0.60313224  0.70168911  0.49534517     0.37100
H840        H  0.60935688  0.65152458  0.38025902     0.33600
H841        H  0.65884816  0.49849153  0.44098707     0.25400
H842        H  0.71308682  0.61913946  0.35163746     0.31300
H843        H  0.64549056  0.71036928  0.37150022     0.37200
H844        H  0.58429766  0.54162657  0.53255468     0.31700
H845        H  0.50116944  0.62145306  0.02906609     0.30600
H846        H  0.51820253  0.69481656  0.48810007     0.32200
H847        H  0.55102263  0.74136220  0.44862131     0.31200
H848        H  0.68194266  0.56015595  0.52609097     0.35200
H849        H  0.69052023  0.68487405  0.04737599     0.27900
H850        H  0.54590380  0.54138303  0.36690002     0.32200
H851        H  0.55193926  0.69561402  0.38378828     0.35000
H852        H  0.51756480  0.58239025  0.52553223     0.27600
H853        H  0.71347153  0.65241806  0.54115228     0.40500
H854        H  0.68779099  0.54584247  0.38120155     0.30600
H855        H  0.69073084  0.51385300  0.45969880     0.38200
H856        H  0.58531079  0.76582280  0.44465206     0.30000
H857        H  0.70305479  0.65889984  0.36045684     0.30100
H858        H  0.52654839  0.57873323  0.36121140     0.30400
Zr859      Zr  0.66540976  0.65442507  0.24137014     2.17500
O860        O  0.70050318  0.67161147  0.28580503    -0.52000
O861        O  0.67757639  0.71997749  0.23765841    -0.75200
O862        O  0.72717652  0.63989728  0.22837306    -0.82000
O863        O  0.58613487  0.61867244  0.29433368    -0.83700
O864        O  0.72700491  0.64159283  0.17657506    -0.79400
O865        O  0.64562898  0.63157695  0.29406163    -0.91000
O866        O  0.66356624  0.73389977  0.18810308    -0.77000
O867        O  0.66614755  0.66923019  0.18681080    -0.86400
O868        O  0.60775916  0.68094262  0.23279590    -0.86100
O869        O  0.67456901  0.59865295  0.21361636    -0.72900
O870        O  0.62061748  0.60982444  0.25111832    -0.85000
Zr871      Zr  0.57614854  0.58839954  0.16250774     2.26400
Zr872      Zr  0.67248947  0.61418642  0.15863882     2.06300
Zr873      Zr  0.56363193  0.63319973  0.24105364     2.10000
Zr874      Zr  0.60962846  0.69493963  0.17861777     1.78800
O875        O  0.51823371  0.61686769  0.28018768    -0.93800
O876        O  0.62689177  0.72366104  0.12866163    -0.41600
O877        O  0.57274181  0.64360966  0.18899269    -0.78300
O878        O  0.61505899  0.64056319  0.15003992    -0.97000
O879        O  0.63323657  0.56426357  0.17336642    -0.90300
O880        O  0.57265339  0.57645729  0.21722472    -0.93100
C881        C  0.68202094  0.73957070  0.21268801     1.00600
C882        C  0.61659229  0.62023607  0.30810598     1.13600
C883        C  0.74121395  0.63156199  0.20217331     1.04400
O884        O  0.71083545  0.63923914  0.11700329    -0.95300
O885        O  0.65177702  0.61290578  0.10490368    -0.91000
O886        O  0.59318500  0.59736315  0.10706892    -0.84100
C887        C  0.62158521  0.60762243  0.09193058     1.11000
O888        O  0.67722914  0.54050336  0.26690592    -0.97200
Zr889      Zr  0.63130352  0.55404693  0.22889792     1.88900
O890        O  0.58057194  0.51863114  0.17119462    -0.73900
O891        O  0.70387525  0.55748417  0.15013576    -0.53100
O892        O  0.66652239  0.50400599  0.20974083    -0.97800
O893        O  0.61337481  0.53458643  0.28154995    -0.55000
O894        O  0.58748732  0.50956335  0.22241345    -0.74400
C895        C  0.58247588  0.49708873  0.19599787     0.97900
O896        O  0.53148938  0.56373708  0.12807495    -0.63200
O897        O  0.53667197  0.69232868  0.24940185    -0.58000
O898        O  0.51233822  0.59751415  0.16573200    -0.94700
O899        O  0.50770205  0.61515990  0.21536556    -0.93100
O900        O  0.57813044  0.74395957  0.20362910    -0.93500
O901        O  0.56038958  0.71859504  0.14777024    -0.92300
C902        C  0.49385043  0.60492850  0.18963360     1.16800
H903        H  0.60409913  0.70169578  0.24553302     0.32700
H904        H  0.61120159  0.65182595  0.12988355     0.43600
H905        H  0.55276456  0.56074622  0.22309072     0.37100
H906        H  0.69612533  0.58576491  0.21876348     0.33600
H907        H  0.62461178  0.75014277  0.13167713     0.25400
H908        H  0.70365012  0.54413029  0.17050027     0.31300
H909        H  0.65543182  0.48177589  0.21931981     0.37200
H910        H  0.59694617  0.76187918  0.20826428     0.31700
H911        H  0.51854863  0.69500674  0.23300764     0.30600
H912        H  0.51904498  0.58994808  0.28222294     0.32200
H913        H  0.61346728  0.50764840  0.28167153     0.31200
H914        H  0.55333554  0.69808381  0.13487109     0.35200
H915        H  0.52894965  0.58136545  0.11027217     0.27900
H916        H  0.68673079  0.69114828  0.29559738     0.32200
H917        H  0.68338119  0.56439359  0.27538195     0.35000
H918        H  0.52267680  0.68901866  0.26896072     0.27600
H919        H  0.54288716  0.54220939  0.11909334     0.40500
H920        H  0.70272133  0.66464749  0.11351839     0.30600
H921        H  0.65289128  0.71961803  0.12686120     0.38200
H922        H  0.58785662  0.54106033  0.28312729     0.30000
H923        H  0.68797081  0.54331181  0.13692068     0.30100
H924        H  0.72191789  0.68415878  0.27686206     0.30400
Zr925      Zr  0.13276728  0.18073834  0.44092637     2.17500
O926        O  0.15332728  0.21418851  0.39402286    -0.52000
O927        O  0.19584900  0.19992163  0.44692175    -0.75200
O928        O  0.11550747  0.24258049  0.45343264    -0.82000
O929        O  0.09845315  0.10236207  0.39050601    -0.83700
O930        O  0.11202526  0.24222802  0.00697029    -0.79400
O931        O  0.11081554  0.16321616  0.38863831    -0.91000
O932        O  0.21353711  0.17434767  0.49266117    -0.77000
O933        O  0.14855948  0.17965230  0.99464345    -0.86400
O934        O  0.15914576  0.12177343  0.44829376    -0.86100
O935        O  0.07817787  0.18656407  0.47161757    -0.72900
O936        O  0.08794200  0.13574168  0.43402761    -0.85000
Zr937      Zr  0.07503239  0.08181940  0.02462127     2.26400
Zr938      Zr  0.09465933  0.18133772  0.02538895     2.06300
Zr939      Zr  0.11210055  0.07740108  0.44345967     2.10000
Zr940      Zr  0.17748063  0.12293973  0.00128905     1.78800
O941        O  0.09120468  0.03478873  0.40565215    -0.93800
O942        O  0.20368546  0.13918747  0.05039282    -0.41600
O943        O  0.13148036  0.07670251  0.99521272    -0.78300
O944        O  0.12416993  0.12402996  0.03187973    -0.97000
O945        O  0.04802346  0.13926765  0.01425313    -0.90300
O946        O  0.05821860  0.08284871  0.47283209    -0.93100
C947        C  0.21748525  0.19800141  0.46993108     1.00600
C948        C  0.09971421  0.13378741  0.37580648     1.13600
C949        C  0.10214282  0.25650104  0.98106922     1.04400
O950        O  0.11308119  0.22159781  0.06586852    -0.95300
O951        O  0.09855056  0.15814649  0.07919472    -0.91000
O952        O  0.08651295  0.09740851  0.07957942    -0.84100
C953        C  0.09576074  0.12671033  0.09329355     1.11000
O954        O  0.00781648  0.18276446  0.42252070    -0.97200
Zr955      Zr  0.03405727  0.14188288  0.46163253     1.88900
O956        O  0.00737687  0.09070816  0.02731436    -0.73900
O957        O  0.03277688  0.19703924  0.03580381    -0.53100
O958        O  0.99007732  0.17877836  0.98061111    -0.97800
O959        O  0.01289475  0.11701966  0.41356885    -0.55000
O960        O  0.99643011  0.09319413  0.97682621    -0.74400
C961        C  0.98505660  0.09299936  0.00450839     0.97900
O962        O  0.06545516  0.02998715  0.06096335    -0.63200
O963        O  0.16960450  0.04999915  0.43237926    -0.58000
O964        O  0.07646660  0.01709683  0.01329736    -0.94700
O965        O  0.09466794  0.01825022  0.46801345    -0.93100
O966        O  0.22328377  0.09178010  0.47334826    -0.93500
O967        O  0.20282824  0.07274696  0.03202935    -0.92300
C968        C  0.08593289  0.00109031  0.98863782     1.16800
H969        H  0.17904035  0.11876583  0.43415445     0.32700
H970        H  0.13603550  0.11965314  0.05122021     0.43600
H971        H  0.04322425  0.06242064  0.46803549     0.37100
H972        H  0.06461302  0.20819580  0.46676111     0.33600
H973        H  0.22950306  0.14214686  0.04586594     0.25400
H974        H  0.03175982  0.20305845  0.05798717     0.31300
H975        H  0.99764443  0.20411974  0.97521108     0.37200
H976        H  0.24289676  0.10992510  0.47333818     0.31700
H977        H  0.16840880  0.02570832  0.44307780     0.30600
H978        H  0.10948319  0.01549785  0.40512486     0.32200
H979        H  0.98751620  0.11082173  0.41764866     0.31200
H980        H  0.19017513  0.05076362  0.02526236     0.35200
H981        H  0.08734967  0.02804967  0.07348954     0.27900
H982        H  0.17419313  0.20038715  0.38662758     0.32200
H983        H  0.02830425  0.19667687  0.41334427     0.35000
H984        H  0.16909884  0.04494468  0.40999045     0.27600
H985        H  0.04668362  0.03778470  0.07560359     0.40500
H986        H  0.13942865  0.22230725  0.06433618     0.30600
H987        H  0.19514486  0.16418149  0.05386907     0.38200
H988        H  0.02480184  0.09311720  0.41241533     0.30000
H989        H  0.02870339  0.22026712  0.02408077     0.30100
H990        H  0.16356628  0.23718341  0.40129611     0.30400
Zr991      Zr  0.13506699  0.17714343  0.18957267     2.17500
O992        O  0.15897141  0.20679170  0.14207113    -0.52000
O993        O  0.19643299  0.19980265  0.19857180    -0.75200
O994        O  0.11309868  0.23880505  0.19116501    -0.82000
O995        O  0.10529026  0.09381449  0.14200235    -0.83700
O996        O  0.11109306  0.24040434  0.24244991    -0.79400
O997        O  0.11776190  0.15456608  0.13825403    -0.91000
O998        O  0.21155035  0.17731458  0.24609517    -0.77000
O999        O  0.14568863  0.17991952  0.24418038    -0.86400
O1000       O  0.16276228  0.11982471  0.20202664    -0.86100
O1001       O  0.07708238  0.18236735  0.21586651    -0.72900
O1002       O  0.09324920  0.12964686  0.18277345    -0.85000
Zr1003     Zr  0.06887615  0.08500041  0.27544931     2.26400
Zr1004     Zr  0.08899068  0.18502134  0.27079461     2.06300
Zr1005     Zr  0.11803694  0.07311059  0.19648652     2.10000
Zr1006     Zr  0.17237851  0.12300533  0.25622321     1.78800
O1007       O  0.11091898  0.02750158  0.15743432    -0.93800
O1008       O  0.19320274  0.14071533  0.30692734    -0.41600
O1009       O  0.12426711  0.08320059  0.24826863    -0.78300
O1010       O  0.11733129  0.12773574  0.28347643    -0.97000
O1011       O  0.04317714  0.14141364  0.25919033    -0.90300
O1012       O  0.06067472  0.07877916  0.22083938    -0.93100
C1013       C  0.21676972  0.19950439  0.22245940     1.00600
C1014       C  0.10722468  0.12456326  0.12628963     1.13600
C1015       C  0.10032417  0.25224210  0.21574844     1.04400
O1016       O  0.10154911  0.23557756  0.30399228    -0.95300
O1017       O  0.09276998  0.16623389  0.32668919    -0.91000
O1018       O  0.07774028  0.10605545  0.32974973    -0.84100
C1019       C  0.08802021  0.13584734  0.34244084     1.11000
O1020       O  0.01858893  0.17489515  0.15996012    -0.97200
Zr1021     Zr  0.03606970  0.13586447  0.20406011     1.88900
O1022       O  0.00097384  0.09481303  0.27127992    -0.73900
O1023       O  0.02958683  0.20737711  0.28250630    -0.53100
O1024       O  0.98459771  0.17370710  0.21515144    -0.97800
O1025       O  0.02299746  0.10464162  0.15655897    -0.55000
O1026       O  0.99385552  0.09147285  0.22041676    -0.74400
C1027       C  0.98041428  0.09422037  0.24709094     0.97900
O1028       O  0.04947680  0.03785480  0.31359886    -0.63200
O1029       O  0.17777852  0.04751852  0.19430983    -0.58000
O1030       O  0.07346772  0.01836048  0.27006460    -0.94700
O1031       O  0.09734374  0.01581905  0.22162144    -0.93100
O1032       O  0.22395205  0.09265992  0.23431743    -0.93500
O1033       O  0.19649833  0.07438404  0.28959483    -0.92300
C1034       C  0.08356083  0.00050604  0.24645717     1.16800
H1035       H  0.18414587  0.11661282  0.18973685     0.32700
H1036       H  0.12873746  0.12400999  0.30301013     0.43600
H1037       H  0.04601606  0.05803744  0.21626904     0.37100
H1038       H  0.06253147  0.20193841  0.20843026     0.33600
H1039       H  0.21893395  0.14600451  0.30386346     0.25400
H1040       H  0.01566328  0.20428008  0.26347873     0.31300
H1041       H  0.99292216  0.19918377  0.21170628     0.37200
H1042       H  0.24469545  0.10624954  0.24202448     0.31700
H1043       H  0.17605493  0.02451942  0.20698585     0.30600
H1044       H  0.12551408  0.00663108  0.16475789     0.32200
H1045       H  0.99671195  0.10277788  0.15609342     0.31200
H1046       H  0.17812130  0.05493646  0.28987864     0.35200
H1047       H  0.06574237  0.03910454  0.33141693     0.27900
H1048       H  0.18187245  0.19444072  0.13804168     0.32200
H1049       H  0.03883474  0.17373545  0.14505561     0.35000
H1050       H  0.18108350  0.03977717  0.17271332     0.27600
H1051       H  0.02623828  0.04645382  0.32155457     0.40500
H1052       H  0.12580015  0.23081289  0.31189355     0.30600
H1053       H  0.18229824  0.16480311  0.31008028     0.38200
H1054       H  0.03099951  0.07928523  0.16053728     0.30000
H1055       H  0.01927765  0.18947694  0.29794172     0.30100
H1056       H  0.16583199  0.23167078  0.14785238     0.30400
Zr1057     Zr  0.26320689  0.31132670  0.49964041     2.17500
O1058       O  0.23090648  0.29523915  0.04460990    -0.52000
O1059       O  0.24764484  0.24616678  0.49553524    -0.75200
O1060       O  0.20234926  0.32602800  0.48605319    -0.82000
O1061       O  0.34395042  0.34829860  0.04872659    -0.83700
O1062       O  0.20182576  0.32256958  0.43392830    -0.79400
O1063       O  0.28479499  0.33395706  0.04993498    -0.91000
O1064       O  0.26769702  0.23281966  0.44774234    -0.77000
O1065       O  0.26473512  0.29573828  0.44634530    -0.86400
O1066       O  0.32143352  0.28615158  0.49248573    -0.86100
O1067       O  0.25252693  0.36682977  0.46836776    -0.72900
O1068       O  0.30576151  0.35821926  0.50613905    -0.85000
Zr1069     Zr  0.35400642  0.37861405  0.41500639     2.26400
Zr1070     Zr  0.25734492  0.35033379  0.41487436     2.06300
Zr1071     Zr  0.36372569  0.33538093  0.49683633     2.10000
Zr1072     Zr  0.32211096  0.27171734  0.43927646     1.78800
O1073       O  0.40931730  0.35617415  0.03358829    -0.93800
O1074       O  0.31013787  0.24292667  0.39040470    -0.41600
O1075       O  0.35768102  0.32388220  0.44552016    -0.78300
O1076       O  0.31589643  0.32563393  0.40716140    -0.97000
O1077       O  0.29571560  0.40128824  0.42397961    -0.90300
O1078       O  0.35435202  0.39146416  0.46865631    -0.93100
C1079       C  0.24656319  0.22669001  0.47133822     1.00600
C1080       C  0.31352017  0.34544133  0.06301015     1.13600
C1081       C  0.18638136  0.32857499  0.45985277     1.04400
O1082       O  0.21768806  0.33133594  0.37430226    -0.95300
O1083       O  0.27806821  0.35013820  0.36088475    -0.91000
O1084       O  0.33608292  0.36820654  0.36053084    -0.84100
C1085       C  0.30796313  0.35667846  0.34679339     1.11000
O1086       O  0.24574272  0.44006633  0.50707233    -0.97200
Zr1087     Zr  0.29477872  0.41312780  0.47835217     1.88900
O1088       O  0.35001321  0.44861371  0.42027128    -0.73900
O1089       O  0.22625311  0.40741538  0.40485952    -0.53100
O1090       O  0.26312489  0.46043954  0.44886480    -0.97800
O1091       O  0.30796353  0.43275671  0.53040928    -0.55000
O1092       O  0.33939417  0.45715530  0.47077609    -0.74400
C1093       C  0.34661550  0.46989905  0.44388053     0.97900
O1094       O  0.39665273  0.40309395  0.37612751    -0.63200
O1095       O  0.39097673  0.27730881  0.51156571    -0.58000
O1096       O  0.41869473  0.37040190  0.42040388    -0.94700
O1097       O  0.42117985  0.35084817  0.47077684    -0.93100
O1098       O  0.35091140  0.22306175  0.46948810    -0.93500
O1099       O  0.37331355  0.24558101  0.41309791    -0.92300
C1100       C  0.43632493  0.36155576  0.44478215     1.16800
H1101       H  0.32509145  0.26578628  0.50689471     0.32700
H1102       H  0.32046374  0.31407428  0.38792674     0.43600
H1103       H  0.37420279  0.40703139  0.47345852     0.37100
H1104       H  0.23037359  0.37911761  0.47207037     0.33600
H1105       H  0.30814068  0.21657371  0.39596528     0.25400
H1106       H  0.22771772  0.41135588  0.38201248     0.31300
H1107       H  0.26944369  0.48352460  0.45863102     0.37200
H1108       H  0.33409689  0.20223116  0.46894192     0.31700
H1109       H  0.41895531  0.28122802  0.00548242     0.30600
H1110       H  0.41521857  0.33405314  0.04629445     0.32200
H1111       H  0.33311121  0.42574099  0.53368445     0.31200
H1112       H  0.38381144  0.26612666  0.40047194     0.35200
H1113       H  0.40166602  0.38328896  0.36175892     0.27900
H1114       H  0.24324380  0.27347360  0.05334497     0.32200
H1115       H  0.23264542  0.41915698  0.51701623     0.35000
H1116       H  0.39811471  0.27994953  0.53340177     0.27600
H1117       H  0.38323348  0.42144455  0.36363401     0.40500
H1118       H  0.22157024  0.30480111  0.37293295     0.30600
H1119       H  0.28554768  0.25033808  0.38516440     0.38200
H1120       H  0.29418926  0.41623969  0.54481879     0.30000
H1121       H  0.20087147  0.40142750  0.40921896     0.30100
H1122       H  0.20512773  0.28252704  0.53708911     0.30400
Zr1123     Zr  0.35662314  0.37731336  0.16500981     2.17500
O1124       O  0.40029056  0.40002839  0.12625392    -0.52000
O1125       O  0.35332860  0.44746563  0.16917168    -0.75200
O1126       O  0.33934422  0.36624277  0.11021688    -0.82000
O1127       O  0.42266003  0.35316092  0.22305304    -0.83700
O1128       O  0.28071421  0.35068129  0.10980224    -0.79400
O1129       O  0.42118425  0.36941458  0.17188351    -0.91000
O1130       O  0.34254000  0.45679582  0.21948188    -0.77000
O1131       O  0.29841023  0.40086383  0.17291932    -0.86400
O1132       O  0.35643318  0.39134148  0.21853919    -0.86100
O1133       O  0.31820327  0.32439200  0.15737828    -0.72900
O1134       O  0.35927550  0.32316568  0.19656627    -0.85000
Zr1135     Zr  0.26332349  0.31423431  0.24900350     2.26400
Zr1136     Zr  0.25999022  0.34992339  0.16369104     2.06300
Zr1137     Zr  0.36472612  0.33579682  0.24769648     2.10000
Zr1138     Zr  0.29694719  0.41409184  0.22714636     1.78800
O1139       O  0.39191884  0.27680852  0.25916123    -0.93800
O1140       O  0.26538318  0.46466259  0.20166838    -0.41600
O1141       O  0.30707715  0.35989423  0.25578122    -0.78300
O1142       O  0.25440159  0.36856213  0.21637348    -0.97000
O1143       O  0.26619854  0.29644027  0.19647908    -0.90300
O1144       O  0.32132669  0.28762527  0.24361471    -0.93100
C1145       C  0.34990916  0.46909832  0.19251988     1.00600
C1146       C  0.43833672  0.36231352  0.19689882     1.13600
C1147       C  0.31099498  0.35582827  0.09609026     1.04400
O1148       O  0.23042886  0.40612884  0.14771951    -0.95300
O1149       O  0.20087858  0.33290077  0.18187517    -0.91000
O1150       O  0.20244752  0.32928353  0.23446960    -0.84100
C1151       C  0.18574001  0.33307765  0.20863705     1.11000
O1152       O  0.37439570  0.24711050  0.16307852    -0.97200
Zr1153     Zr  0.32319379  0.27118354  0.19087601     1.88900
O1154       O  0.24573246  0.24951140  0.24664955    -0.73900
O1155       O  0.21981299  0.31727943  0.13030626    -0.53100
O1156       O  0.31044115  0.24041724  0.14316200    -0.97800
O1157       O  0.35051385  0.22226882  0.22224795    -0.55000
O1158       O  0.26832258  0.23277995  0.20048968    -0.74400
C1159       C  0.24589717  0.22835725  0.22349757     0.97900
O1160       O  0.22689843  0.29999250  0.29527188    -0.63200
O1161       O  0.40584951  0.35258221  0.28819221    -0.58000
O1162       O  0.28226122  0.33468771  0.30066759    -0.94700
O1163       O  0.34144428  0.34892454  0.29992153    -0.93100
O1164       O  0.31037536  0.43617304  0.27825978    -0.93500
O1165       O  0.24767075  0.43348391  0.25992953    -0.92300
C1166       C  0.31081135  0.34620942  0.31387851     1.16800
H1167       H  0.37647126  0.40664273  0.22333294     0.32700
H1168       H  0.23229983  0.38130574  0.21933271     0.43600
H1169       H  0.32424163  0.26777166  0.25867620     0.37100
H1170       H  0.32259689  0.31287202  0.13804920     0.33600
H1171       H  0.27410149  0.46594647  0.17987231     0.25400
H1172       H  0.21383140  0.33471710  0.11309592     0.31300
H1173       H  0.29007912  0.25385501  0.13402735     0.37200
H1174       H  0.33499542  0.42789597  0.28232287     0.31700
H1175       H  0.42336936  0.33256723  0.28948729     0.30600
H1176       H  0.38573265  0.27114291  0.28124207     0.32200
H1177       H  0.35701959  0.20331075  0.20750746     0.31200
H1178       H  0.23787590  0.41068851  0.26976099     0.35200
H1179       H  0.20417919  0.29029225  0.28750341     0.27900
H1180       H  0.38743566  0.41837949  0.11329055     0.32200
H1181       H  0.39516698  0.26032960  0.17112798     0.35000
H1182       H  0.41947334  0.37387886  0.27956280     0.27600
H1183       H  0.23841203  0.27861588  0.30552712     0.40500
H1184       H  0.21342799  0.41053763  0.16492120     0.30600
H1185       H  0.24038666  0.45618718  0.20035594     0.38200
H1186       H  0.33054949  0.21107230  0.23456234     0.30000
H1187       H  0.23447639  0.29836531  0.12061887     0.30100
H1188       H  0.40513900  0.37976896  0.11230972     0.30400
Zr1189     Zr  0.96878322  0.40251087  0.00288237     2.17500
O1190       O  0.01622573  0.38763081  0.03935980    -0.52000
O1191       O  0.95121079  0.33951581  0.99929451    -0.75200
O1192       O  0.94861419  0.40028121  0.05689160    -0.82000
O1193       O  0.04038435  0.41759764  0.43534805    -0.83700
O1194       O  0.89084927  0.41828700  0.05643107    -0.79400
O1195       O  0.03452876  0.39842279  0.48613834    -0.91000
O1196       O  0.95094476  0.32705001  0.45718908    -0.77000
O1197       O  0.91477704  0.39086733  0.49510102    -0.86400
O1198       O  0.97056356  0.39639813  0.44892336    -0.86100
O1199       O  0.93512624  0.45534527  0.01550411    -0.72900
O1200       O  0.99349643  0.46346781  0.47163960    -0.85000
Zr1201     Zr  0.89213854  0.48221383  0.42218445     2.26400
Zr1202     Zr  0.87476881  0.43775603  0.00385380     2.06300
Zr1203     Zr  0.98674648  0.44923417  0.41830056     2.10000
Zr1204     Zr  0.91090346  0.37584663  0.44184318     1.78800
O1205       O  0.02619447  0.50160745  0.41021538    -0.93800
O1206       O  0.87042667  0.33364802  0.46995997    -0.41600
O1207       O  0.92671308  0.42955997  0.41086949    -0.78300
O1208       O  0.87358697  0.42725353  0.45128212    -0.97000
O1209       O  0.89803416  0.49640940  0.47512661    -0.90300
O1210       O  0.95225279  0.50181232  0.42884518    -0.93100
C1211       C  0.97009615  0.32678832  0.48145458     1.00600
C1212       C  0.05202655  0.40226474  0.46050065     1.13600
C1213       C  0.91896763  0.40736030  0.07050901     1.04400
O1214       O  0.82619899  0.39373878  0.00142046    -0.95300
O1215       O  0.83673861  0.49021720  0.49175627    -0.91000
O1216       O  0.83127273  0.48060794  0.44120205    -0.84100
C1217       C  0.82206767  0.49697920  0.46560830     1.11000
O1218       O  0.00710290  0.51989845  0.01676549    -0.97200
Zr1219     Zr  0.95787897  0.51478094  0.48250674     1.88900
O1220       O  0.88498219  0.54746276  0.43052748    -0.73900
O1221       O  0.83356679  0.45955976  0.04324223    -0.53100
O1222       O  0.94169390  0.53210427  0.03689737    -0.97800
O1223       O  0.99889210  0.55664279  0.45466497    -0.55000
O1224       O  0.91586655  0.56238987  0.47323247    -0.74400
C1225       C  0.89228724  0.56867041  0.45272550     0.97900
O1226       O  0.85495698  0.49490536  0.37697398    -0.63200
O1227       O  0.01846372  0.42265940  0.37491384    -0.58000
O1228       O  0.90881309  0.48147331  0.36714087    -0.94700
O1229       O  0.96472391  0.45833944  0.36560888    -0.93100
O1230       O  0.93019860  0.34429428  0.39598392    -0.93500
O1231       O  0.86224134  0.36196194  0.40730634    -0.92300
C1232       C  0.93629080  0.47012098  0.35237411     1.16800
H1233       H  0.98728417  0.37805185  0.44301743     0.32700
H1234       H  0.84944809  0.41990973  0.44700735     0.43600
H1235       H  0.95814722  0.52239951  0.41507752     0.37100
H1236       H  0.93777009  0.46193752  0.03677132     0.33600
H1237       H  0.86459603  0.31476709  0.45502096     0.25400
H1238       H  0.82550453  0.43780792  0.05573543     0.31300
H1239       H  0.92968318  0.55568340  0.03283025     0.37200
H1240       H  0.95251533  0.35695799  0.38925495     0.31700
H1241       H  0.04349910  0.43102351  0.37627083     0.30600
H1242       H  0.04697770  0.49591065  0.42340727     0.32200
H1243       H  0.02246364  0.55263177  0.46420921     0.31200
H1244       H  0.86341018  0.38151283  0.39084748     0.35200
H1245       H  0.83097287  0.48494845  0.38220526     0.27900
H1246       H  0.00680278  0.36845481  0.05406168     0.32200
H1247       H  0.02662162  0.50641925  0.00673886     0.35000
H1248       H  0.01910157  0.39615406  0.37998752     0.27600
H1249       H  0.85200606  0.52169060  0.37566078     0.40500
H1250       H  0.80455933  0.40882133  0.99891155     0.30600
H1251       H  0.88533435  0.32082004  0.48563131     0.38200
H1252       H  0.99167141  0.58113267  0.46110244     0.30000
H1253       H  0.84835323  0.47371934  0.05739415     0.30100
H1254       H  0.01900368  0.40947967  0.05189565     0.30400
Zr1255     Zr  0.88400264  0.46933821  0.25076347     2.17500
O1256       O  0.83722484  0.46561686  0.29068634    -0.52000
O1257       O  0.88198301  0.53458827  0.24491918    -0.75200
O1258       O  0.90585209  0.47601654  0.30392005    -0.82000
O1259       O  0.82590654  0.48138820  0.18155475    -0.83700
O1260       O  0.96179721  0.45298513  0.30520541    -0.79400
O1261       O  0.82378789  0.48051664  0.23379683    -0.91000
O1262       O  0.91981706  0.55365230  0.20586384    -0.77000
O1263       O  0.94522630  0.48527448  0.24244024    -0.86400
O1264       O  0.89164596  0.48578233  0.19660962    -0.86100
O1265       O  0.91441728  0.41409836  0.26458980    -0.72900
O1266       O  0.86151783  0.41866372  0.22299220    -0.85000
Zr1267     Zr  0.96258969  0.39494822  0.17339006     2.26400
Zr1268     Zr  0.97600599  0.43014202  0.25471968     2.06300
Zr1269     Zr  0.86984842  0.43514876  0.16911044     2.10000
Zr1270     Zr  0.95220042  0.50056015  0.18837125     1.78800
O1271       O  0.82313955  0.38890295  0.17037009    -0.93800
O1272       O  0.00090773  0.53544188  0.20963734    -0.41600
O1273       O  0.93162421  0.44997604  0.15959728    -0.78300
O1274       O  0.98469993  0.44623477  0.20067933    -0.97000
O1275       O  0.95484592  0.38027965  0.22710874    -0.90300
O1276       O  0.90089055  0.37989514  0.18071397    -0.93100
C1277       C  0.89498387  0.55907939  0.22600823     1.00600
C1278       C  0.81496832  0.49422199  0.20732416     1.13600
C1279       C  0.93462009  0.46714257  0.31823328     1.04400
O1280       O  0.02431292  0.47410754  0.25857601    -0.95300
O1281       O  0.02856524  0.39556445  0.24174720    -0.91000
O1282       O  0.02147097  0.37931029  0.19194294    -0.84100
C1283       C  0.03960490  0.38090171  0.21692945     1.11000
O1284       O  0.84369397  0.35927847  0.27132017    -0.97200
Zr1285     Zr  0.89385255  0.36415089  0.23486610     1.88900
O1286       O  0.95191189  0.33001977  0.18107797    -0.73900
O1287       O  0.99845478  0.39096641  0.29685623    -0.53100
O1288       O  0.89563323  0.31907710  0.27764039    -0.97800
O1289       O  0.85392389  0.32796362  0.20402513    -0.55000
O1290       O  0.94020108  0.31900918  0.23104994    -0.74400
C1291       C  0.95912312  0.31360790  0.20687851     0.97900
O1292       O  0.00599037  0.38878978  0.13117536    -0.63200
O1293       O  0.83757182  0.45649315  0.12316560    -0.58000
O1294       O  0.94525229  0.39513420  0.11933040    -0.94700
O1295       O  0.89048800  0.42117170  0.11732643    -0.93100
O1296       O  0.93726510  0.53728812  0.14221429    -0.93500
O1297       O  0.99874726  0.50915103  0.14874150    -0.92300
C1298       C  0.91794042  0.40698872  0.10457598     1.16800
H1299       H  0.87944483  0.50746504  0.18987963     0.32700
H1300       H  0.00968131  0.45034968  0.19605036     0.43600
H1301       H  0.89371475  0.36106230  0.16700304     0.37100
H1302       H  0.91054999  0.40765168  0.28630973     0.33600
H1303       H  0.99968288  0.55955489  0.19863009     0.25400
H1304       H  0.01446498  0.40652189  0.30880375     0.31300
H1305       H  0.90963870  0.33091966  0.29378898     0.37200
H1306       H  0.91875035  0.52296488  0.13188815     0.31700
H1307       H  0.81204471  0.45193246  0.12806540     0.30600
H1308       H  0.80162460  0.40164052  0.17772609     0.32200
H1309       H  0.83463459  0.31954760  0.21851045     0.31200
H1310       H  0.00551051  0.48419085  0.14318223     0.35200
H1311       H  0.02569100  0.40582244  0.13551602     0.27900
H1312       H  0.84140804  0.48599581  0.30457690     0.32200
H1313       H  0.82336155  0.37014773  0.25995095     0.35000
H1314       H  0.84024500  0.48334765  0.12227463     0.27600
H1315       H  0.01623034  0.36413180  0.13410972     0.40500
H1316       H  0.03863771  0.46464845  0.27620534     0.30600
H1317       H  0.99330876  0.54014385  0.23119495     0.38200
H1318       H  0.86758750  0.30581659  0.19941834     0.30000
H1319       H  0.97779088  0.38557521  0.31085616     0.30100
H1320       H  0.84252967  0.44337284  0.30344230     0.30400
C1321       C  0.13033793  0.34218829  0.23916082    -0.12900
C1322       C  0.14718205  0.34127412  0.20993325     0.04100
C1323       C  0.12783386  0.35292212  0.18335170    -0.08200
C1324       C  0.09260130  0.36383039  0.18662302    -0.09000
C1325       C  0.07618361  0.36604553  0.21589230    -0.03500
C1326       C  0.09579472  0.35549322  0.24254528     0.03300
N1327       N  0.08223669  0.35927321  0.27336708     0.65800
H1328       H  0.14464443  0.33433093  0.26001169     0.14700
H1329       H  0.07872468  0.37278862  0.16583710     0.14400
N1330       N  0.14401742  0.35776779  0.15322326     0.73500
O1331       O  0.07446863  0.33078388  0.28934601    -0.39900
O1332       O  0.09072396  0.38749660  0.28740144    -0.39900
O1333       O  0.14006975  0.33325696  0.13384637    -0.40600
O1334       O  0.15122557  0.38974319  0.14324064    -0.40700
C1335       C  0.14268300  0.36874285  0.48349636    -0.12900
C1336       C  0.15052673  0.34487137  0.45965453     0.04100
C1337       C  0.12652885  0.34260088  0.43469802    -0.08200
C1338       C  0.09475584  0.36216734  0.43531575    -0.09000
C1339       C  0.08712539  0.38540725  0.45941848    -0.03500
C1340       C  0.11196372  0.38968747  0.48310700     0.03300
N1341       N  0.10857705  0.41783910  0.50492567     0.65800
H1342       H  0.16158594  0.37310068  0.50179948     0.14700
H1343       H  0.07588955  0.35916337  0.41674275     0.14400
N1344       N  0.13416554  0.32223927  0.40786967     0.73500
O1345       O  0.09927422  0.40939233  0.53250607    -0.39900
O1346       O  0.12586583  0.44705038  0.49969069    -0.39900
O1347       O  0.11689921  0.29326084  0.40410704    -0.40600
O1348       O  0.14638594  0.33931462  0.38408097    -0.40700
C1349       C  0.04565784  0.27681887  0.24002054    -0.12900
C1350       C  0.06559969  0.27148039  0.21288265     0.04100
C1351       C  0.04859854  0.27759497  0.18382686    -0.08200
C1352       C  0.01329281  0.28897053  0.18286513    -0.09000
C1353       C  0.99360483  0.29457211  0.20997228    -0.03500
C1354       C  0.01003843  0.28765542  0.23897691     0.03300
N1355       N  0.99139153  0.29148594  0.26777189     0.65800
H1356       H  0.05731549  0.27119204  0.26248901     0.14700
H1357       H  0.00137495  0.29395471  0.16033810     0.14400
N1358       N  0.06582622  0.27166025  0.15471042     0.73500
O1359       O  0.97688657  0.26375202  0.28079673    -0.39900
O1360       O  0.99870038  0.31826594  0.28399767    -0.39900
O1361       O  0.05955662  0.24219879  0.14165678    -0.40600
O1362       O  0.07461279  0.29914651  0.13785875    -0.40700
C1363       C  0.05243463  0.28422038  0.95216763    -0.12900
C1364       C  0.07035307  0.28067720  0.98050723     0.04100
C1365       C  0.06233533  0.29769545  0.50666356    -0.08200
C1366       C  0.02752161  0.31135070  0.50685495    -0.09000
C1367       C  0.00537924  0.30889325  0.48098108    -0.03500
C1368       C  0.01744069  0.29619540  0.95042781     0.03300
N1369       N  0.00178248  0.29857463  0.92041601     0.65800
H1370       H  0.06478806  0.27566024  0.93084349     0.14700
H1371       H  0.01794365  0.32423265  0.52754922     0.14400
N1372       N  0.08294435  0.30156459  0.53393306     0.73500
O1373       O  0.01016743  0.31388763  0.40315975    -0.39900
O1374       O  0.99235497  0.26948293  0.90813247    -0.39900
O1375       O  0.09815052  0.33174552  0.53760835    -0.40600
O1376       O  0.05918371  0.26708509  0.05696737    -0.40700
C1377       C  0.76986336  0.58126566  0.23134814    -0.12900
C1378       C  0.76697015  0.60087172  0.20288582     0.04100
C1379       C  0.78130739  0.58512682  0.17593898    -0.08200
C1380       C  0.79549247  0.54995830  0.17798733    -0.09000
C1381       C  0.79562503  0.52938237  0.20616713    -0.03500
C1382       C  0.78266066  0.54583749  0.23313687     0.03300
N1383       N  0.78049014  0.52693080  0.26263425     0.65800
H1384       H  0.75936828  0.59215467  0.25259942     0.14700
H1385       H  0.80681978  0.53892509  0.15710560     0.14400
N1386       N  0.78202398  0.60375451  0.14620579     0.73500
O1387       O  0.80165332  0.53624730  0.28341249    -0.39900
O1388       O  0.75106677  0.51254869  0.27085645    -0.39900
O1389       O  0.80949597  0.62205286  0.13849513    -0.40600
O1390       O  0.76366257  0.59085357  0.12489692    -0.40700
C1391       C  0.76524352  0.57786329  0.48379444    -0.12900
C1392       C  0.76432136  0.59665164  0.45458594     0.04100
C1393       C  0.78046332  0.57999726  0.42881666    -0.08200
C1394       C  0.79772302  0.54687904  0.43323882    -0.09000
C1395       C  0.79821718  0.52839768  0.46217387    -0.03500
C1396       C  0.78032570  0.54347256  0.48743832     0.03300
N1397       N  0.78784174  0.53236190  0.01938014     0.65800
H1398       H  0.75150633  0.58831370  0.50382205     0.14700
H1399       H  0.81094050  0.53560965  0.41343707     0.14400
N1400       N  0.77869456  0.59434269  0.39761020     0.73500
O1401       O  0.81148682  0.54261476  0.03770609    -0.39900
O1402       O  0.75955337  0.51822796  0.03064590    -0.39900
O1403       O  0.80700254  0.60692177  0.38521720    -0.40600
O1404       O  0.75686872  0.57945232  0.38006486    -0.40700
C1405       C  0.86247939  0.60562040  0.25450323    -0.12900
C1406       C  0.87776342  0.59502431  0.22658567     0.04100
C1407       C  0.87237905  0.61668032  0.19938137    -0.08200
C1408       C  0.85244138  0.64878392  0.20078130    -0.09000
C1409       C  0.83809618  0.66023878  0.22918344    -0.03500
C1410       C  0.84315334  0.63770755  0.25624120     0.03300
N1411       N  0.82972287  0.64681022  0.28609907     0.65800
H1412       H  0.86585817  0.58893345  0.27554414     0.14700
H1413       H  0.84974923  0.66566429  0.17978106     0.14400
N1414       N  0.88732334  0.60653292  0.17031455     0.73500
O1415       O  0.80170573  0.63099191  0.29614136    -0.39900
O1416       O  0.85153981  0.65826630  0.30555243    -0.39900
O1417       O  0.87330619  0.58075851  0.15618008    -0.40600
O1418       O  0.91880105  0.61630451  0.16332392    -0.40700
C1419       C  0.86448840  0.62383205  0.42962278    -0.12900
C1420       C  0.87116670  0.60183123  0.45591610     0.04100
C1421       C  0.85776552  0.61213347  0.48509286    -0.08200
C1422       C  0.83669304  0.64295966  0.48710441    -0.09000
C1423       C  0.83157355  0.66634196  0.46122195    -0.03500
C1424       C  0.84607469  0.65659048  0.43202277     0.03300
N1425       N  0.84697779  0.68131989  0.40558038     0.65800
H1426       H  0.87573290  0.61679266  0.40734465     0.14700
H1427       H  0.82674011  0.65013280  0.50979181     0.14400
N1428       N  0.86727282  0.59346893  0.51340126     0.73500
O1429       O  0.82397323  0.67816418  0.38478904    -0.39900
O1430       O  0.87601983  0.69719916  0.39851353    -0.39900
O1431       O  0.89049501  0.60781390  0.53003542    -0.40600
O1432       O  0.84506586  0.57172178  0.52623054    -0.40700
C1433       C  0.41754414  0.80714355  0.20662687    -0.12900
C1434       C  0.42582234  0.81521189  0.17524149     0.04100
C1435       C  0.39897962  0.81035955  0.15314027    -0.08200
C1436       C  0.36546478  0.79684550  0.16276096    -0.09000
C1437       C  0.35805778  0.78635273  0.19389464    -0.03500
C1438       C  0.38442513  0.79332305  0.21624673     0.03300
N1439       N  0.37913728  0.78613673  0.24884501     0.65800
H1440       H  0.43686171  0.81205455  0.22447272     0.14700
H1441       H  0.34544585  0.79335392  0.14536298     0.14400
N1442       N  0.40539345  0.81712595  0.12070413     0.73500
O1443       O  0.38904780  0.75582577  0.26023188    -0.39900
O1444       O  0.37867222  0.81286385  0.26636894    -0.39900
O1445       O  0.41128215  0.79034962  0.10393290    -0.40600
O1446       O  0.39344582  0.84596382  0.10810029    -0.40700
C1447       C  0.33531186  0.86964867  0.22717960    -0.12900
C1448       C  0.34311911  0.88159827  0.19647957     0.04100
C1449       C  0.31845648  0.87470078  0.17314996    -0.08200
C1450       C  0.28714147  0.85572590  0.18102442    -0.09000
C1451       C  0.27868053  0.84514940  0.21210169    -0.03500
C1452       C  0.30336302  0.85252844  0.23537592     0.03300
N1453       N  0.29582994  0.84558903  0.26766931     0.65800
H1454       H  0.35374736  0.87473817  0.24558480     0.14700
H1455       H  0.26805058  0.85208916  0.16275959     0.14400
N1456       N  0.32217857  0.89026467  0.14238932     0.73500
O1457       O  0.30521117  0.81564240  0.28019800    -0.39900
O1458       O  0.29081056  0.87238272  0.28464596    -0.39900
O1459       O  0.32382369  0.86914981  0.12002172    -0.40600
O1460       O  0.31101195  0.92224455  0.13727188    -0.40700
C1461       C  0.37964700  0.82170165  0.39803345    -0.12900
C1462       C  0.40761804  0.82154517  0.41937934     0.04100
C1463       C  0.40097645  0.80613831  0.44955346    -0.08200
C1464       C  0.36777744  0.79154587  0.45741771    -0.09000
C1465       C  0.34062984  0.78904515  0.43569684    -0.03500
C1466       C  0.34623307  0.80575241  0.40572879     0.03300
N1467       N  0.31808239  0.80887610  0.38358993     0.65800
H1468       H  0.38347469  0.83528039  0.37546505     0.14700
H1469       H  0.36441977  0.77959116  0.48064258     0.14400
N1470       N  0.42732437  0.80467001  0.47311865     0.73500
O1471       O  0.28697559  0.81639434  0.39262521    -0.39900
O1472       O  0.32540923  0.81146574  0.35489116    -0.39900
O1473       O  0.42260698  0.82349295  0.49666017    -0.40600
O1474       O  0.44618049  0.77644018  0.47578025    -0.40700
C1475       C  0.31922391  0.87890728  0.99485859    -0.12900
C1476       C  0.33606872  0.89082513  0.45811117     0.04100
C1477       C  0.30859108  0.89280649  0.43631670    -0.08200
C1478       C  0.27838617  0.87125554  0.44113376    -0.09000
C1479       C  0.27443929  0.84798581  0.46759494    -0.03500
C1480       C  0.29295383  0.85188096  0.99824530     0.03300
N1481       N  0.29315305  0.82852461  0.02548597     0.65800
H1482       H  0.33917295  0.88027397  0.01270553     0.14700
H1483       H  0.25697218  0.87432298  0.42461841     0.14400
N1484       N  0.30941429  0.91825057  0.41042093     0.73500
O1485       O  0.31559664  0.80312808  0.02682276    -0.39900
O1486       O  0.28178928  0.84098777  0.05060994    -0.39900
O1487       O  0.31259562  0.90626611  0.38348246    -0.40600
O1488       O  0.29543502  0.94907472  0.41359329    -0.40700
C1489       C  0.58814559  0.15549814  0.18945448    -0.12900
C1490       C  0.59283865  0.17029616  0.21857359     0.04100
C1491       C  0.57235809  0.15581827  0.24428362    -0.08200
C1492       C  0.55149548  0.12482086  0.24082783    -0.09000
C1493       C  0.54701224  0.11034523  0.21171441    -0.03500
C1494       C  0.56393087  0.12735463  0.18548781     0.03300
N1495       N  0.55582485  0.11796223  0.15452368     0.65800
H1496       H  0.60175685  0.16717539  0.16905501     0.14700
H1497       H  0.53715762  0.11308768  0.26085577     0.14400
N1498       N  0.56842838  0.17419475  0.27278958     0.73500
O1499       O  0.53217595  0.13605531  0.14036600    -0.39900
O1500       O  0.57931596  0.10238496  0.13873982    -0.39900
O1501       O  0.54133918  0.19389023  0.27598394    -0.40600
O1502       O  0.58257400  0.16077092  0.29697249    -0.40700
C1503       C  0.57633608  0.10357393  0.50458531    -0.12900
C1504       C  0.53946799  0.10386903  0.49900159     0.04100
C1505       C  0.52311262  0.13738767  0.49127007    -0.08200
C1506       C  0.54421916  0.16724512  0.48245731    -0.09000
C1507       C  0.58137991  0.16525680  0.48343474    -0.03500
C1508       C  0.59732984  0.13428871  0.49719276     0.03300
N1509       N  0.63500614  0.13051806  0.00654276     0.65800
H1510       H  0.58665974  0.07899662  0.01363835     0.14700
H1511       H  0.53131091  0.19234638  0.47496936     0.14400
N1512       N  0.48537861  0.14196005  0.49263900     0.73500
O1513       O  0.64472569  0.13657846  0.03377805    -0.39900
O1514       O  0.65394803  0.11690270  0.48262207    -0.39900
O1515       O  0.47208832  0.15527305  0.51673304    -0.40600
O1516       O  0.46860250  0.14545502  0.46754734    -0.40700
C1517       C  0.66268638  0.09529775  0.17735916    -0.12900
C1518       C  0.66556547  0.10748239  0.20790174     0.04100
C1519       C  0.64622518  0.08831761  0.23188653    -0.08200
C1520       C  0.62484128  0.05895231  0.22480823    -0.09000
C1521       C  0.62430188  0.04535311  0.19501640    -0.03500
C1522       C  0.64397706  0.06355692  0.17105599     0.03300
N1523       N  0.64932080  0.04803681  0.14145554     0.65800
H1524       H  0.67800282  0.10815770  0.15842672     0.14700
H1525       H  0.60972378  0.04561119  0.24355460     0.14400
N1526       N  0.65068805  0.09446363  0.26404617     0.73500
O1527       O  0.63605320  0.06365331  0.11778386    -0.39900
O1528       O  0.67599216  0.02778800  0.13783461    -0.39900
O1529       O  0.62579772  0.10986931  0.27821201    -0.40600
O1530       O  0.66902626  0.07163933  0.27932871    -0.40700
C1531       C  0.64778542  0.10498373  0.41082425    -0.12900
C1532       C  0.68067000  0.08695846  0.41130808     0.04100
C1533       C  0.68110576  0.04858750  0.40923638    -0.08200
C1534       C  0.65034023  0.02883948  0.41592620    -0.09000
C1535       C  0.61871209  0.04681350  0.42119829    -0.03500
C1536       C  0.61631227  0.08446328  0.41440160     0.03300
N1537       N  0.58242206  0.10141826  0.41065957     0.65800
H1538       H  0.64664835  0.13445512  0.41083712     0.14700
H1539       H  0.65131292  0.99932025  0.41757368     0.14400
N1540       N  0.71335530  0.02887272  0.40507729     0.73500
O1541       O  0.55698494  0.10863871  0.93339379    -0.39900
O1542       O  0.56854278  0.10199059  0.38415561    -0.39900
O1543       O  0.72408834  0.00876112  0.42738193    -0.40600
O1544       O  0.72223374  0.02098005  0.37781620    -0.40700
Zr1545     Zr  0.78210225  0.15689413  0.93362627     2.17500
O1546       O  0.79126667  0.20541962  0.89409671    -0.52000
O1547       O  0.72304945  0.13417956  0.92037628    -0.75200
O1548       O  0.78629564  0.12967853  0.88162819    -0.82000
O1549       O  0.75730041  0.22285387  0.49770541    -0.83700
O1550       O  0.82205671  0.07990033  0.88461697    -0.79400
O1551       O  0.75015807  0.21371543  0.94682104    -0.91000
O1552       O  0.71479072  0.08742959  0.95572906    -0.77000
O1553       O  0.77762396  0.09306522  0.94565813    -0.86400
O1554       O  0.75804458  0.15021246  0.48508086    -0.86100
O1555       O  0.84192236  0.13361441  0.92844154    -0.72900
O1556       O  0.82627570  0.18370323  0.96647545    -0.85000
Zr1557     Zr  0.85601880  0.08405329  0.52390676     2.26400
Zr1558     Zr  0.83600177  0.06969919  0.93858693     2.06300
Zr1559     Zr  0.80109479  0.17695061  0.51770306     2.10000
Zr1560     Zr  0.75559880  0.08711861  0.49711645     1.78800
O1561       O  0.83408205  0.23281284  0.52641560    -0.93800
O1562       O  0.71002672  0.03921465  0.00597633    -0.41600
O1563       O  0.79797488  0.11237593  0.53033607    -0.78300
O1564       O  0.81181434  0.06009041  0.48970156    -0.97000
O1565       O  0.87980264  0.09259834  0.97242908    -0.90300
O1566       O  0.85967307  0.14964396  0.51497870    -0.93100
C1567       C  0.70624840  0.10578399  0.93119508     1.00600
C1568       C  0.74151933  0.23118190  0.47183716     1.13600
C1569       C  0.80270833  0.10262604  0.86942458     1.04400
O1570       O  0.80666016  0.01862710  0.91477191    -0.95300
O1571       O  0.85467516  0.01119723  0.95734177    -0.91000
O1572       O  0.85859905  0.01701958  0.50996661    -0.84100
C1573       C  0.85760667  0.99610867  0.98429276     1.11000
O1574       O  0.89282484  0.20644222  0.92529282    -0.97200
Zr1575     Zr  0.88463508  0.15677019  0.96390650     1.88900
O1576       O  0.92187732  0.08631995  0.52555106    -0.73900
O1577       O  0.89330136  0.06312569  0.91206458    -0.53100
O1578       O  0.92991947  0.14683092  0.92412622    -0.97800
O1579       O  0.90772285  0.20951652  0.49345952    -0.55000
O1580       O  0.93474515  0.12949906  0.48803767    -0.74400
C1581       C  0.94419048  0.10501239  0.50844366     0.97900
O1582       O  0.86113220  0.04513312  0.57068941    -0.63200
O1583       O  0.75837051  0.19237727  0.55824847    -0.58000
O1584       O  0.84924375  0.11162586  0.57560652    -0.94700
O1585       O  0.81604733  0.16352872  0.57128253    -0.93100
O1586       O  0.71833631  0.11866733  0.53395087    -0.93500
O1587       O  0.75930721  0.03306092  0.53167080    -0.92300
C1588       C  0.83348035  0.13952844  0.58711583     1.16800
H1589       H  0.73444630  0.16024041  0.48714734     0.32700
H1590       H  0.80531341  0.03479327  0.49223403     0.43600
H1591       H  0.87528719  0.16009781  0.52995384     0.37100
H1592       H  0.85077370  0.13859741  0.90754974     0.33600
H1593       H  0.68468212  0.05647472  0.49926434     0.25400
H1594       H  0.91074040  0.05792652  0.92865804     0.31300
H1595       H  0.91678706  0.13772734  0.90621112     0.37200
H1596       H  0.71053651  0.09942030  0.54932058     0.31700
H1597       H  0.76260417  0.21853247  0.56172014     0.30600
H1598       H  0.82884798  0.24899639  0.50816659     0.32200
H1599       H  0.92681558  0.22013260  0.97534410     0.31200
H1600       H  0.75896586  0.04262076  0.55284627     0.35200
H1601       H  0.84046440  0.02829593  0.57029576     0.27900
H1602       H  0.77414990  0.20026418  0.87752653     0.32200
H1603       H  0.86965915  0.21920743  0.92480506     0.35000
H1604       H  0.73461384  0.19141656  0.54860689     0.27600
H1605       H  0.88217313  0.02967272  0.56698462     0.40500
H1606       H  0.82437822  0.00926276  0.89985305     0.30600
H1607       H  0.70958494  0.02536622  0.98676087     0.38200
H1608       H  0.92968866  0.21742576  0.48210731     0.30000
H1609       H  0.89120792  0.03992020  0.90126703     0.30100
H1610       H  0.81496894  0.20044980  0.88484253     0.30400
Zr1611     Zr  0.85492647  0.08505757  0.76813495     2.17500
O1612       O  0.89386197  0.05732238  0.80727854    -0.52000
O1613       O  0.84866436  0.01673360  0.75663924    -0.75200
O1614       O  0.82967683  0.08596691  0.82176676    -0.82000
O1615       O  0.93009052  0.11489823  0.71931919    -0.83700
O1616       O  0.77416136  0.11009811  0.82068029    -0.79400
O1617       O  0.92076489  0.08954723  0.76737351    -0.91000
O1618       O  0.83997236  0.01147320  0.70541010    -0.77000
O1619       O  0.79727683  0.06586138  0.75331283    -0.86400
O1620       O  0.86122810  0.07865109  0.71376647    -0.86100
O1621       O  0.81751644  0.13739755  0.77912736    -0.72900
O1622       O  0.86327174  0.14356129  0.74400475    -0.85000
Zr1623     Zr  0.77730886  0.16550200  0.68511389     2.26400
Zr1624     Zr  0.75924763  0.11607629  0.76553671     2.06300
Zr1625     Zr  0.87619122  0.13776746  0.69238832     2.10000
Zr1626     Zr  0.80254361  0.06132508  0.69792824     1.78800
O1627       O  0.90807228  0.19557592  0.68574077    -0.93800
O1628       O  0.76173256  0.01270909  0.71589414    -0.41600
O1629       O  0.81905651  0.11857706  0.67620570    -0.78300
O1630       O  0.76122274  0.10707760  0.71029926    -0.97000
O1631       O  0.77146263  0.17344496  0.73956608    -0.90300
O1632       O  0.83502296  0.18757034  0.69893947    -0.93100
C1633       C  0.84545163  0.99721415  0.73194549     1.00600
C1634       C  0.94169904  0.09993929  0.74490706     1.13600
C1635       C  0.80152706  0.09829056  0.83536394     1.04400
O1636       O  0.72464365  0.05980576  0.76817597    -0.95300
O1637       O  0.70794408  0.14824250  0.74470335    -0.91000
O1638       O  0.71488045  0.15121310  0.69275395    -0.84100
C1639       C  0.69566050  0.14560599  0.71736420     1.11000
O1640       O  0.87172714  0.21592209  0.78937551    -0.97200
Zr1641     Zr  0.82740030  0.19513751  0.75313445     1.88900
O1642       O  0.76095615  0.22896387  0.69414732    -0.73900
O1643       O  0.71364634  0.13679276  0.80168489    -0.53100
O1644       O  0.81048113  0.21723066  0.80385101    -0.97800
O1645       O  0.85837889  0.24822946  0.72991073    -0.55000
O1646       O  0.77076275  0.23174103  0.74526155    -0.74400
C1647       C  0.75313712  0.24183401  0.72066552     0.97900
O1648       O  0.74543840  0.18448475  0.63830004    -0.63200
O1649       O  0.92216660  0.12022155  0.65541925    -0.58000
O1650       O  0.80491984  0.15849564  0.63310686    -0.94700
O1651       O  0.86000761  0.13327581  0.63734595    -0.93100
O1652       O  0.82696982  0.04802844  0.64699792    -0.93500
O1653       O  0.75854375  0.04780384  0.65889500    -0.92300
C1654       C  0.83326223  0.14438645  0.62114915     1.16800
H1655       H  0.87994830  0.06188172  0.70863617     0.32700
H1656       H  0.73928276  0.09607586  0.70385908     0.43600
H1657       H  0.84124460  0.20942341  0.68687128     0.37100
H1658       H  0.82087780  0.14572947  0.79974124     0.33600
H1659       H  0.76806705  0.99161805  0.70335421     0.25400
H1660       H  0.70980002  0.11711459  0.81775472     0.31300
H1661       H  0.78446625  0.21284878  0.80565602     0.37200
H1662       H  0.85241108  0.05517002  0.64792203     0.31700
H1663       H  0.94334537  0.13496868  0.66035928     0.30600
H1664       H  0.91390484  0.19778213  0.66326071     0.32200
H1665       H  0.88403317  0.24395978  0.73353408     0.31200
H1666       H  0.75134368  0.07190864  0.65010769     0.35200
H1667       H  0.73208879  0.16258112  0.63226394     0.27900
H1668       H  0.88029889  0.03612951  0.81624528     0.32200
H1669       H  0.88187016  0.19327453  0.79868624     0.35000
H1670       H  0.92850048  0.09487598  0.66164736     0.27600
H1671       H  0.72682682  0.20144936  0.64528179     0.40500
H1672       H  0.72996481  0.04859499  0.78883535     0.30600
H1673       H  0.76916739  0.00546869  0.73718831     0.38200
H1674       H  0.85202734  0.26834119  0.74356425     0.30000
H1675       H  0.72449564  0.15722097  0.81263166     0.30100
H1676       H  0.89537716  0.07456556  0.82433154     0.30400
Zr1677     Zr  0.63467799  0.28030266  0.00327005     2.17500
O1678       O  0.64558451  0.24435985  0.54944920    -0.52000
O1679       O  0.69787439  0.26340518  0.99706298    -0.75200
O1680       O  0.61748072  0.21723523  0.99799146    -0.82000
O1681       O  0.59509520  0.35897563  0.55205805    -0.83700
O1682       O  0.60068108  0.21085877  0.94773236    -0.79400
O1683       O  0.61161860  0.29949394  0.55491039    -0.91000
O1684       O  0.71215503  0.28205574  0.94801652    -0.77000
O1685       O  0.65019623  0.27934378  0.94948752    -0.86400
O1686       O  0.66053748  0.33931313  0.99294810    -0.86100
O1687       O  0.57987308  0.27121906  0.97546811    -0.72900
O1688       O  0.58957672  0.32464688  0.01048868    -0.85000
Zr1689     Zr  0.57078965  0.37027695  0.91800086     2.26400
Zr1690     Zr  0.59628086  0.27109547  0.92132426     2.06300
Zr1691     Zr  0.61320262  0.38297861  0.99807880     2.10000
Zr1692     Zr  0.67478116  0.33793311  0.93919936     1.78800
O1693       O  0.58445889  0.42683596  0.53339932    -0.93800
O1694       O  0.70201301  0.32855939  0.88838472    -0.41600
O1695       O  0.62417233  0.37449836  0.94648775    -0.78300
O1696       O  0.62182242  0.33047409  0.91003174    -0.97000
O1697       O  0.54724928  0.31151081  0.93117205    -0.90300
O1698       O  0.55809602  0.37400430  0.97216725    -0.93100
C1699       C  0.71730407  0.26110812  0.97240597     1.00600
C1700       C  0.59899804  0.32826340  0.56732785     1.13600
C1701       C  0.60523106  0.19869639  0.97591245     1.04400
O1702       O  0.62975073  0.22775358  0.89122124    -0.95300
O1703       O  0.59712996  0.29045630  0.86597383    -0.91000
O1704       O  0.58108994  0.35012748  0.86427961    -0.84100
C1705       C  0.59167701  0.32103116  0.85108530     1.11000
O1706       O  0.51116152  0.26564691  0.52137981    -0.97200
Zr1707     Zr  0.53517412  0.31456512  0.98587951     1.88900
O1708       O  0.50210408  0.36559410  0.92248045    -0.73900
O1709       O  0.54074869  0.24515178  0.90341685    -0.53100
O1710       O  0.48750246  0.27873824  0.96406070    -0.97800
O1711       O  0.51363608  0.33712713  0.03513074    -0.55000
O1712       O  0.49140271  0.35811479  0.97352602    -0.74400
C1713       C  0.48009014  0.36342416  0.94629864     0.97900
O1714       O  0.55134322  0.41354241  0.87722283    -0.63200
O1715       O  0.66386759  0.41204632  0.51018868    -0.58000
O1716       O  0.57678232  0.43652721  0.92138829    -0.94700
O1717       O  0.59591486  0.44028345  0.97076829    -0.93100
O1718       O  0.72440564  0.36567578  0.96579657    -0.93500
O1719       O  0.69917017  0.39283609  0.91322966    -0.92300
C1720       C  0.58499162  0.45501575  0.94486698     1.16800
H1721       H  0.68056911  0.34301773  0.00630679     0.32700
H1722       H  0.63314610  0.33427345  0.89006152     0.43600
H1723       H  0.54245230  0.39400412  0.97656706     0.37100
H1724       H  0.56671283  0.24994360  0.98209908     0.33600
H1725       H  0.72672198  0.32092357  0.89290926     0.25400
H1726       H  0.54750041  0.23271372  0.88424284     0.31300
H1727       H  0.49839416  0.25489644  0.95997950     0.37200
H1728       H  0.74067767  0.34525522  0.97091408     0.31700
H1729       H  0.67381609  0.42036956  0.48971761     0.30600
H1730       H  0.55858531  0.42148903  0.53494011     0.32200
H1731       H  0.48732012  0.33582896  0.03406072     0.31200
H1732       H  0.67874759  0.40384247  0.90208393     0.35200
H1733       H  0.57178612  0.41750480  0.86267170     0.27900
H1734       H  0.66267607  0.22583272  0.54248731     0.32200
H1735       H  0.51709246  0.24520084  0.01554734     0.35000
H1736       H  0.65673590  0.43478592  0.52014596     0.27600
H1737       H  0.53332313  0.40032501  0.86530475     0.40500
H1738       H  0.65298829  0.22553775  0.90171788     0.30600
H1739       H  0.69037178  0.30636028  0.88089445     0.38200
H1740       H  0.51919458  0.36353270  0.03391629     0.30000
H1741       H  0.53503438  0.22509068  0.91868939     0.30100
H1742       H  0.62396887  0.23010267  0.55562369     0.30400
Zr1743     Zr  0.63253109  0.27709420  0.75216943     2.17500
O1744       O  0.65214366  0.23852237  0.79594376    -0.52000
O1745       O  0.69686450  0.26056676  0.74421567    -0.75200
O1746       O  0.60914828  0.21557508  0.74672485    -0.82000
O1747       O  0.59761125  0.35493989  0.80267330    -0.83700
O1748       O  0.61562942  0.21714631  0.69565514    -0.79400
O1749       O  0.61516742  0.29562727  0.80494596    -0.91000
O1750       O  0.71623937  0.29087967  0.70044803    -0.77000
O1751       O  0.64710382  0.27941861  0.69785066    -0.86400
O1752       O  0.65785595  0.33709090  0.74300996    -0.86100
O1753       O  0.57627107  0.27099109  0.72435750    -0.72900
O1754       O  0.58817930  0.32226531  0.76053352    -0.85000
Zr1755     Zr  0.56847861  0.37200936  0.66908377     2.26400
Zr1756     Zr  0.59222133  0.27256815  0.67001458     2.06300
Zr1757     Zr  0.61098618  0.38126307  0.74978103     2.10000
Zr1758     Zr  0.67151547  0.33880294  0.68902483     1.78800
O1759       O  0.58611850  0.42423203  0.78578979    -0.93800
O1760       O  0.69811521  0.32078903  0.63999809    -0.41600
O1761       O  0.62155269  0.37508019  0.69783938    -0.78300
O1762       O  0.61862588  0.33180032  0.65984813    -0.97000
O1763       O  0.54393264  0.31330848  0.68159373    -0.90300
O1764       O  0.55605024  0.37428224  0.72349596    -0.93100
C1765       C  0.72059204  0.26659907  0.72246439     1.00600
C1766       C  0.60210956  0.32407346  0.81764207     1.13600
C1767       C  0.60198335  0.20235463  0.72051825     1.04400
O1768       O  0.61426892  0.22943667  0.63286907    -0.95300
O1769       O  0.59358718  0.29440158  0.61531072    -0.91000
O1770       O  0.57795154  0.35410874  0.61446524    -0.84100
C1771       C  0.58840478  0.32524839  0.60081144     1.11000
O1772       O  0.51364969  0.27160216  0.77768795    -0.97200
Zr1773     Zr  0.53294684  0.31498216  0.73673615     1.88900
O1774       O  0.50021266  0.36703085  0.67315288    -0.73900
O1775       O  0.53660891  0.24150980  0.65904878    -0.53100
O1776       O  0.48209359  0.27894612  0.72076047    -0.97800
O1777       O  0.51723168  0.34015478  0.78662305    -0.55000
O1778       O  0.49007189  0.35938587  0.72426948    -0.74400
C1779       C  0.47854406  0.36461832  0.69711037     0.97900
O1780       O  0.55311642  0.41947636  0.63034180    -0.63200
O1781       O  0.66658366  0.40833259  0.76648564    -0.58000
O1782       O  0.57420833  0.43793273  0.67413911    -0.94700
O1783       O  0.59710329  0.44024104  0.72243453    -0.93100
O1784       O  0.71683848  0.37526962  0.71355021    -0.93500
O1785       O  0.69252494  0.39026244  0.65627861    -0.92300
C1786       C  0.58503206  0.45580808  0.69713695     1.16800
H1787       H  0.67832940  0.34078810  0.75586944     0.32700
H1788       H  0.63015483  0.33610273  0.64001722     0.43600
H1789       H  0.54095157  0.39453880  0.72840634     0.37100
H1790       H  0.56155458  0.25016463  0.72996581     0.33600
H1791       H  0.72393276  0.32577060  0.64195007     0.25400
H1792       H  0.52278576  0.24125344  0.67875475     0.31300
H1793       H  0.48880761  0.25319957  0.72483780     0.37200
H1794       H  0.73901647  0.36097406  0.71175150     0.31700
H1795       H  0.66382132  0.43480435  0.76217012     0.30600
H1796       H  0.60334382  0.44471950  0.78568065     0.32200
H1797       H  0.49093795  0.33847369  0.78807363     0.31200
H1798       H  0.67050910  0.40235938  0.64895213     0.35200
H1799       H  0.57352985  0.42182011  0.61555186     0.27900
H1800       H  0.67202560  0.25207504  0.80512742     0.32200
H1801       H  0.53337273  0.27148325  0.79273640     0.35000
H1802       H  0.66553571  0.40550637  0.78943940     0.27600
H1803       H  0.53351867  0.40904478  0.61826981     0.40500
H1804       H  0.64054495  0.23079461  0.63443095     0.30600
H1805       H  0.69618562  0.29387356  0.64051197     0.38200
H1806       H  0.52226723  0.36657261  0.78394000     0.30000
H1807       H  0.52368486  0.25851406  0.64489329     0.30100
H1808       H  0.66372196  0.21735870  0.78655892     0.30400
Zr1809     Zr  0.41519946  0.95466625  0.90757844     2.17500
O1810       O  0.36123198  0.98131934  0.88581873    -0.52000
O1811       O  0.40397560  0.89182364  0.89436072    -0.75200
O1812       O  0.42299848  0.96913647  0.85145005    -0.82000
O1813       O  0.37485181  0.92726030  0.98541722    -0.83700
O1814       O  0.47563422  0.99961870  0.84678166    -0.79400
O1815       O  0.36107037  0.93508264  0.93446055    -0.91000
O1816       O  0.44219969  0.85641053  0.92230466    -0.77000
O1817       O  0.47329210  0.93417699  0.89380132    -0.86400
O1818       O  0.43485220  0.91675226  0.95024168    -0.86100
O1819       O  0.45033580  0.00927056  0.90324772    -0.72900
O1820       O  0.41155600  0.98986526  0.95360842    -0.85000
Zr1821     Zr  0.53673288  0.97779544  0.48419407     2.26400
Zr1822     Zr  0.50937029  0.98785541  0.89205298     2.06300
Zr1823     Zr  0.44283027  0.94311460  0.49215928     2.10000
Zr1824     Zr  0.49195759  0.89514831  0.93577186     1.78800
O1825       O  0.39681557  0.98045966  0.51511938    -0.93800
O1826       O  0.51434671  0.86692624  0.88910680    -0.41600
O1827       O  0.50306409  0.92239935  0.48930490    -0.78300
O1828       O  0.53056728  0.94773169  0.93240427    -0.97000
O1829       O  0.50717059  0.02325234  0.93688961    -0.90300
O1830       O  0.46942152  0.00467717  0.99154744    -0.93100
C1831       C  0.41205348  0.86213202  0.90930957     1.00600
C1832       C  0.35386219  0.92403716  0.96245354     1.13600
C1833       C  0.44688944  0.98762823  0.83569955     1.04400
O1834       O  0.54757567  0.94263434  0.86878354    -0.95300
O1835       O  0.55565078  0.03074840  0.90161984    -0.91000
O1836       O  0.57752882  0.01143691  0.94810804    -0.84100
C1837       C  0.57962211  0.02997302  0.92220187     1.11000
O1838       O  0.39771534  0.07497341  0.92855560    -0.97200
Zr1839     Zr  0.44887428  0.04253178  0.94969455     1.88900
O1840       O  0.53816809  0.03982628  0.50001762    -0.73900
O1841       O  0.54250665  0.02025133  0.85019310    -0.53100
O1842       O  0.45981239  0.09550339  0.91517274    -0.97800
O1843       O  0.41374608  0.06588587  0.99244182    -0.55000
O1844       O  0.49171313  0.07881225  0.97541303    -0.74400
C1845       C  0.51939149  0.07440988  0.99204284     0.97900
O1846       O  0.58919617  0.95449590  0.51091553    -0.63200
O1847       O  0.43414239  0.89371242  0.53088218    -0.58000
O1848       O  0.52277090  0.97150631  0.53996628    -0.94700
O1849       O  0.46547061  0.95112647  0.54299247    -0.93100
O1850       O  0.50237025  0.83927649  0.49071432    -0.93500
O1851       O  0.56654435  0.85531201  0.46711973    -0.92300
C1852       C  0.49443858  0.96137892  0.55527346     1.16800
H1853       H  0.41904192  0.89702873  0.95607189     0.32700
H1854       H  0.55491655  0.94067643  0.92843181     0.43600
H1855       H  0.47234096  0.01209717  0.50545768     0.37100
H1856       H  0.44121662  0.02561623  0.88721612     0.33600
H1857       H  0.51380504  0.84044073  0.89433089     0.25400
H1858       H  0.54088972  0.00500915  0.83180316     0.31300
H1859       H  0.47805777  0.08741048  0.90016864     0.37200
H1860       H  0.50668850  0.81508049  0.48208238     0.31700
H1861       H  0.41084180  0.88251824  0.52645051     0.30600
H1862       H  0.40989542  0.99855263  0.52711005     0.32200
H1863       H  0.38887398  0.05851082  0.98840585     0.31200
H1864       H  0.57282678  0.87031700  0.48486587     0.35200
H1865       H  0.58047753  0.93284880  0.52322672     0.27900
H1866       H  0.35584341  0.96702161  0.86742653     0.32200
H1867       H  0.38618914  0.05739302  0.91497455     0.35000
H1868       H  0.45210687  0.87530864  0.52547400     0.27600
H1869       H  0.60422313  0.94424480  0.49436089     0.40500
H1870       H  0.53363388  0.93363635  0.85127616     0.30600
H1871       H  0.49532781  0.87044083  0.87360605     0.38200
H1872       H  0.41409712  0.09266917  0.98884718     0.30000
H1873       H  0.52866929  0.04246884  0.84489302     0.30100
H1874       H  0.36860123  0.00564174  0.87725216     0.30400
Zr1875     Zr  0.43703001  0.94509053  0.65380198     2.17500
O1876       O  0.39199046  0.94249669  0.61374891    -0.52000
O1877       O  0.45607257  0.88252128  0.65249518    -0.75200
O1878       O  0.46497996  0.94875247  0.60260105    -0.82000
O1879       O  0.36943684  0.92856592  0.71601358    -0.83700
O1880       O  0.51697473  0.98074223  0.60303618    -0.79400
O1881       O  0.38417452  0.90953384  0.66806041    -0.91000
O1882       O  0.47516428  0.86831321  0.70055363    -0.77000
O1883       O  0.49903221  0.94062013  0.66512878    -0.86400
O1884       O  0.44004774  0.92951912  0.70811141    -0.86100
O1885       O  0.45971376  0.00551650  0.64234166    -0.72900
O1886       O  0.40391564  0.99119185  0.67983198    -0.85000
Zr1887     Zr  0.49139847  0.03018667  0.73652454     2.26400
Zr1888     Zr  0.52170946  0.00100388  0.65577627     2.06300
Zr1889     Zr  0.40784781  0.97519482  0.73379061     2.10000
Zr1890     Zr  0.50161562  0.92456073  0.71900368     1.78800
O1891       O  0.35532530  0.01374367  0.73255537    -0.93800
O1892       O  0.55650907  0.90074839  0.69706865    -0.41600
O1893       O  0.46949226  0.96990429  0.74663226    -0.78300
O1894       O  0.52581568  0.98483618  0.71019301    -0.97000
O1895       O  0.48959924  0.04586568  0.68268006    -0.90300
O1896       O  0.42973993  0.03543706  0.72454834    -0.93100
C1897       C  0.45673364  0.86113767  0.67649615     1.00600
C1898       C  0.36535669  0.90795245  0.69314565     1.13600
C1899       C  0.49280158  0.96306580  0.58919973     1.04400
O1900       O  0.57596977  0.96522426  0.65256502    -0.95300
O1901       O  0.56520593  0.04424321  0.67323350    -0.91000
O1902       O  0.54914004  0.05546574  0.72283535    -0.84100
C1903       C  0.56988638  0.05957230  0.69905048     1.11000
O1904       O  0.38175939  0.08807852  0.69263194    -0.97200
Zr1905     Zr  0.42847016  0.05120659  0.67008884     1.88900
O1906       O  0.46836874  0.09155707  0.73117554    -0.73900
O1907       O  0.54425625  0.04653530  0.61772143    -0.53100
O1908       O  0.37679037  0.04979247  0.63663959    -0.97800
O1909       O  0.43750230  0.08520842  0.62095365    -0.55000
O1910       O  0.46351175  0.10497683  0.68093628    -0.74400
C1911       C  0.47647355  0.11174791  0.70735112     0.97900
O1912       O  0.52106911  0.05455523  0.78134378    -0.63200
O1913       O  0.37626227  0.94324749  0.77677334    -0.58000
O1914       O  0.47096236  0.01034884  0.78845786    -0.94700
O1915       O  0.41678883  0.98281240  0.78830324    -0.93100
O1916       O  0.49183820  0.88092505  0.76232321    -0.93500
O1917       O  0.54277262  0.92390588  0.76231314    -0.92300
C1918       C  0.44396816  0.99463122  0.80223324     1.16800
H1919       H  0.42895226  0.90664227  0.71433198     0.33100
H1920       H  0.55034121  0.98508728  0.71667355     0.43600
H1921       H  0.41690548  0.05215419  0.73734837     0.37100
H1922       H  0.45728915  0.01217157  0.62057987     0.33600
H1923       H  0.56653061  0.88495726  0.71387301     0.25400
H1924       H  0.56263878  0.03403856  0.60540389     0.31300
H1925       H  0.37834026  0.02609241  0.62653845     0.37200
H1926       H  0.46602582  0.88248627  0.76713176     0.31700
H1927       H  0.35078673  0.94277651  0.77111488     0.30600
H1928       H  0.33641251  0.99817444  0.72414471     0.32200
H1929       H  0.46314933  0.09169479  0.62034964     0.31200
H1930       H  0.53700541  0.94610737  0.77366405     0.35200
H1931       H  0.54489917  0.04315284  0.78182102     0.27900
H1932       H  0.40111380  0.92519549  0.59855189     0.32200
H1933       H  0.37976575  0.10945800  0.67806665     0.35000
H1934       H  0.38416181  0.91760141  0.77619274     0.27600
H1935       H  0.52572621  0.08057951  0.77594890     0.40500
H1936       H  0.56939519  0.94408428  0.64021978     0.30600
H1937       H  0.54855447  0.88356493  0.68139781     0.38200
H1938       H  0.42513431  0.10861667  0.62375531     0.30000
H1939       H  0.52443219  0.05125171  0.60321965     0.30100
H1940       H  0.39343748  0.96652999  0.60260628     0.30400
Zr1941     Zr  0.36355541  0.59852723  0.90886619     2.17500
O1942       O  0.39477376  0.56225559  0.87070272    -0.52000
O1943       O  0.43208963  0.60165033  0.91700669    -0.75200
O1944       O  0.34924979  0.61354629  0.85344240    -0.82000
O1945       O  0.34079084  0.52739316  0.96614014    -0.83700
O1946       O  0.32782702  0.67106175  0.85065597    -0.79400
O1947       O  0.35701083  0.53199218  0.91536634    -0.91000
O1948       O  0.44429228  0.63498055  0.95872517    -0.77000
O1949       O  0.37840269  0.66126179  0.91362384    -0.86400
O1950       O  0.37925001  0.60274869  0.96187030    -0.86100
O1951       O  0.30720193  0.63039827  0.89993276    -0.72900
O1952       O  0.31221530  0.58871913  0.94069469    -0.85000
Zr1953     Zr  0.29221459  0.68525282  0.98999342     2.26400
Zr1954     Zr  0.32379793  0.69322746  0.90291844     2.06300
Zr1955     Zr  0.32763043  0.58513598  0.99159971     2.10000
Zr1956     Zr  0.39220619  0.66625963  0.96764604     1.78800
O1957       O  0.27798532  0.54807779  0.01211630    -0.93800
O1958       O  0.43164452  0.71183756  0.94266078    -0.41600
O1959       O  0.34257763  0.64739472  0.99755113    -0.78300
O1960       O  0.34209744  0.70175352  0.95553885    -0.97000
O1961       O  0.27414156  0.67990547  0.93729053    -0.90300
O1962       O  0.27503060  0.62229057  0.98669006    -0.93100
C1963       C  0.45410357  0.61457924  0.93742776     1.00600
C1964       C  0.34961371  0.51293009  0.94016508     1.13600
C1965       C  0.33600173  0.64113060  0.83819874     1.04400
O1966       O  0.37074650  0.73715691  0.88922466    -0.95300
O1967       O  0.28663617  0.74181937  0.92086564    -0.91000
O1968       O  0.29680320  0.74928317  0.97082980    -0.84100
C1969       C  0.29768948  0.76152995  0.94235152     1.11000
O1970       O  0.23243853  0.56408818  0.91213019    -0.97200
Zr1971     Zr  0.25712867  0.61867918  0.93428031     1.88900
O1972       O  0.22684160  0.68791937  0.99047360    -0.73900
O1973       O  0.28814085  0.72570230  0.86401869    -0.53100
O1974       O  0.22744381  0.62540700  0.88447341    -0.97800
O1975       O  0.21358681  0.58798750  0.96912648    -0.55000
O1976       O  0.21466420  0.67021179  0.94236271    -0.74400
C1977       C  0.20714211  0.68913049  0.96635981     0.97900
O1978       O  0.27668043  0.72330888  0.03321757    -0.63200
O1979       O  0.36714870  0.55004265  0.02562545    -0.58000
O1980       O  0.32369228  0.67061554  0.54106569    -0.94700
O1981       O  0.33806714  0.61037879  0.54314149    -0.93100
O1982       O  0.41812129  0.65044544  0.01784848    -0.93500
O1983       O  0.40272438  0.71659612  0.00160417    -0.92300
C1984       C  0.33648003  0.64191644  0.55551753     1.16800
H1985       H  0.39830506  0.58651972  0.96781695     0.32700
H1986       H  0.35184665  0.72579721  0.95772891     0.43600
H1987       H  0.25696623  0.61588241  0.00214741     0.37100
H1988       H  0.29617216  0.62414267  0.88084609     0.33600
H1989       H  0.45512871  0.70777719  0.95236135     0.25400
H1990       H  0.30377012  0.73082667  0.84566573     0.31300
H1991       H  0.23414135  0.65015555  0.87644681     0.37200
H1992       H  0.41192273  0.62442942  0.02180295     0.31700
H1993       H  0.33464900  0.52102350  0.53159331     0.30600
H1994       H  0.28914100  0.52814921  0.02458204     0.32200
H1995       H  0.22098565  0.56219245  0.97104736     0.31200
H1996       H  0.37934962  0.72089863  0.01172012     0.35200
H1997       H  0.29906327  0.73614212  0.03804766     0.27900
H1998       H  0.40839158  0.57989427  0.85712946     0.32200
H1999       H  0.25037739  0.54497226  0.91643571     0.35000
H2000       H  0.38716151  0.54256610  0.01214105     0.27600
H2001       H  0.26102366  0.74254406  0.02436228     0.40500
H2002       H  0.37934789  0.73008544  0.86849834     0.30600
H2003       H  0.43494133  0.70406286  0.92107865     0.38200
H2004       H  0.19106310  0.58774622  0.95743759     0.30000
H2005       H  0.27022683  0.70794353  0.85716764     0.30100
H2006       H  0.37645862  0.55192067  0.85719022     0.30400
Zr2007     Zr  0.36617443  0.59645325  0.65906198     2.17500
O2008       O  0.38923662  0.55253364  0.62275263    -0.52000
O2009       O  0.43399605  0.60170006  0.66559698    -0.75200
O2010       O  0.35802051  0.61547856  0.60339906    -0.82000
O2011       O  0.33379165  0.52722831  0.71514284    -0.83700
O2012       O  0.34602323  0.67602169  0.60085847    -0.79400
O2013       O  0.35739641  0.53031859  0.66643780    -0.91000
O2014       O  0.44000565  0.60294096  0.71686334    -0.77000
O2015       O  0.39260579  0.65356040  0.66973786    -0.86400
O2016       O  0.37501352  0.59190407  0.71382280    -0.86100
O2017       O  0.31828695  0.63906437  0.64721851    -0.72900
O2018       O  0.31098495  0.59443596  0.68651204    -0.85000
Zr2019     Zr  0.30248935  0.69139179  0.73741623     2.26400
Zr2020     Zr  0.34701673  0.69666039  0.65485918     2.06300
Zr2021     Zr  0.31837382  0.58584658  0.73893437     2.10000
Zr2022     Zr  0.40002140  0.64991465  0.72545117     1.78800
O2023       O  0.25994135  0.55988327  0.75178930    -0.93800
O2024       O  0.45196871  0.68631514  0.70872698    -0.41600
O2025       O  0.34336548  0.64343969  0.74811615    -0.78300
O2026       O  0.35979776  0.69634013  0.70974478    -0.97000
O2027       O  0.29053716  0.69222145  0.68284917    -0.90300
O2028       O  0.27466877  0.63314845  0.72992585    -0.93100
C2029       C  0.45375900  0.60146604  0.69029154     1.00600
C2030       C  0.34631699  0.51199373  0.69059963     1.13600
C2031       C  0.34921427  0.64500446  0.58809507     1.04400
O2032       O  0.40551919  0.72545565  0.64950662    -0.95300
O2033       O  0.32041024  0.75043639  0.67629635    -0.91000
O2034       O  0.32703798  0.75293354  0.72683744    -0.84100
C2035       C  0.33457374  0.76544074  0.69936771     1.11000
O2036       O  0.23861210  0.59184474  0.63998239    -0.97200
Zr2037     Zr  0.26368969  0.63448239  0.67583488     1.88900
O2038       O  0.23810272  0.70668037  0.73304822    -0.73900
O2039       O  0.33510910  0.74450130  0.61546602    -0.53100
O2040       O  0.24344329  0.66222158  0.62690549    -0.97800
O2041       O  0.21552669  0.59468751  0.69537576    -0.55000
O2042       O  0.21891896  0.68080190  0.68946310    -0.74400
C2043       C  0.21433581  0.70233561  0.71209984     0.97900
O2044       O  0.28671413  0.72986034  0.78028836    -0.63200
O2045       O  0.33628344  0.54192632  0.77955727    -0.58000
O2046       O  0.31690134  0.66824047  0.79049355    -0.94700
O2047       O  0.32967779  0.60766093  0.79171308    -0.93100
O2048       O  0.41499731  0.62163236  0.77567793    -0.93500
O2049       O  0.41637779  0.68797526  0.76810648    -0.92300
C2050       C  0.32681740  0.63852438  0.80495529     1.16800
H2051       H  0.38848647  0.57053129  0.71987075     0.32700
H2052       H  0.37459635  0.71684177  0.71448134     0.43600
H2053       H  0.25346893  0.63001638  0.74272773     0.37100
H2054       H  0.30697272  0.63564955  0.62801314     0.33600
H2055       H  0.45463994  0.68279640  0.68616516     0.25400
H2056       H  0.35525404  0.74434620  0.60038074     0.31300
H2057       H  0.25670845  0.68556394  0.62457719     0.37200
H2058       H  0.44130772  0.61962760  0.77557611     0.31700
H2059       H  0.32443705  0.51868531  0.77484362     0.30600
H2060       H  0.26400008  0.53336198  0.75446678     0.32200
H2061       H  0.20733498  0.60475535  0.71520009     0.31200
H2062       H  0.44275574  0.68848718  0.76839342     0.35200
H2063       H  0.30962711  0.74030767  0.78695013     0.27900
H2064       H  0.40864322  0.56555227  0.61103086     0.32200
H2065       H  0.25825747  0.58691921  0.62518776     0.35000
H2066       H  0.36191829  0.53770866  0.77540652     0.27600
H2067       H  0.27380206  0.75074378  0.77068582     0.40500
H2068       H  0.41591824  0.71571351  0.63031770     0.30600
H2069       H  0.44434630  0.71195471  0.71021539     0.38200
H2070       H  0.22704472  0.57132408  0.70124827     0.30000
H2071       H  0.31406298  0.73628637  0.60395525     0.30100
H2072       H  0.37041377  0.54876443  0.60729462     0.30400
Zr2073     Zr  0.16293317  0.80258541  0.93665449     2.17500
O2074       O  0.20076010  0.78515615  0.89327515    -0.52000
O2075       O  0.17463744  0.73692390  0.94029150    -0.75200
O2076       O  0.22405501  0.81537681  0.94915900    -0.82000
O2077       O  0.08617058  0.83727926  0.88451777    -0.83700
O2078       O  0.22616128  0.83097082  0.50026224    -0.79400
O2079       O  0.14510498  0.82301126  0.88383718    -0.91000
O2080       O  0.15808756  0.72253882  0.98958954    -0.77000
O2081       O  0.16250642  0.78711304  0.99099182    -0.86400
O2082       O  0.10487436  0.77677187  0.94548473    -0.86100
O2083       O  0.17333552  0.85838539  0.96417224    -0.72900
O2084       O  0.12053422  0.84945216  0.92695783    -0.85000
Zr2085     Zr  0.07041389  0.86847534  0.51750099     2.26400
Zr2086     Zr  0.16662644  0.84411494  0.51869683     2.06300
Zr2087     Zr  0.06285405  0.82571310  0.93788756     2.10000
Zr2088     Zr  0.10425708  0.76323633  0.49846079     1.78800
O2089       O  0.01874103  0.84739860  0.90077338    -0.93800
O2090       O  0.11857317  0.73724858  0.54969130    -0.41600
O2091       O  0.06963676  0.81381030  0.98983249    -0.78300
O2092       O  0.10907150  0.81662766  0.52821999    -0.97000
O2093       O  0.12754550  0.89409135  0.50634438    -0.90300
O2094       O  0.07250374  0.88201242  0.96225397    -0.93100
C2095       C  0.17743690  0.71692223  0.96515772     1.00600
C2096       C  0.11657622  0.83464075  0.87036863     1.13600
C2097       C  0.23849320  0.82132064  0.97527253     1.04400
O2098       O  0.20603978  0.81398150  0.55591728    -0.95300
O2099       O  0.14621595  0.84481008  0.57265404    -0.91000
O2100       O  0.08768059  0.85978225  0.57212515    -0.84100
C2101       C  0.11615228  0.85004768  0.58636472     1.11000
O2102       O  0.18059980  0.92431856  0.91633861    -0.97200
Zr2103     Zr  0.13163327  0.90469982  0.95092465     1.88900
O2104       O  0.07765014  0.93786635  0.51485642    -0.73900
O2105       O  0.19435126  0.90159440  0.53142828    -0.53100
O2106       O  0.16204971  0.95858909  0.46771416    -0.97800
O2107       O  0.11443266  0.92747436  0.89943803    -0.55000
O2108       O  0.08328427  0.95067773  0.46397647    -0.74400
C2109       C  0.08002027  0.96115751  0.49135863     0.97900
O2110       O  0.02408459  0.88416332  0.55510207    -0.63200
O2111       O  0.03543924  0.76725132  0.92736202    -0.58000
O2112       O  0.00607341  0.86482269  0.51205727    -0.94700
O2113       O  0.00597134  0.84364632  0.96253323    -0.93100
O2114       O  0.07159856  0.71516942  0.97382914    -0.93500
O2115       O  0.05419258  0.73294211  0.52541129    -0.92300
C2116       C  0.99139696  0.85545496  0.98765015     1.16800
H2117       H  0.10114947  0.75637017  0.93241346     0.32700
H2118       H  0.10499088  0.80546156  0.54848857     0.43600
H2119       H  0.05321668  0.89814438  0.95658526     0.37100
H2120       H  0.19558896  0.87045919  0.95913483     0.33600
H2121       H  0.12635791  0.71208496  0.54588366     0.25400
H2122       H  0.18695521  0.90537326  0.55320665     0.31300
H2123       H  0.18971469  0.94659989  0.97345592     0.37200
H2124       H  0.08996630  0.69928087  0.96483103     0.31700
H2125       H  0.01373067  0.76606362  0.94067430     0.30600
H2126       H  0.02376256  0.87380841  0.89780904     0.32200
H2127       H  0.11241667  0.95419104  0.90113396     0.31200
H2128       H  0.03520706  0.75152636  0.52561777     0.35200
H2129       H  0.02203623  0.86358200  0.57058943     0.27900
H2130       H  0.22111782  0.77190839  0.90261957     0.32200
H2131       H  0.18410993  0.90385395  0.90232826     0.35000
H2132       H  0.02646274  0.77027890  0.90592791     0.27600
H2133       H  0.03410250  0.90458711  0.56663358     0.40500
H2134       H  0.21664229  0.83391868  0.56764292     0.30600
H2135       H  0.14063875  0.75003166  0.55556291     0.38200
H2136       H  0.08958005  0.91887793  0.89719281     0.30000
H2137       H  0.22012483  0.89619106  0.53255640     0.30100
H2138       H  0.21115196  0.80828501  0.88476624     0.30400
Zr2139     Zr  0.16064282  0.80945995  0.68522478     2.17500
O2140       O  0.19904230  0.79680930  0.64072212    -0.52000
O2141       O  0.17424604  0.74441660  0.68728634    -0.75200
O2142       O  0.22157341  0.82049205  0.69808252    -0.82000
O2143       O  0.08351075  0.84334299  0.63429393    -0.83700
O2144       O  0.22785063  0.83392565  0.74864282    -0.79400
O2145       O  0.14231027  0.82873138  0.63293483    -0.91000
O2146       O  0.16259765  0.73032054  0.73737286    -0.77000
O2147       O  0.16182700  0.79122011  0.73866842    -0.86400
O2148       O  0.10333191  0.78208085  0.69360496    -0.86100
O2149       O  0.17075525  0.86339499  0.71431293    -0.72900
O2150       O  0.11817129  0.85636388  0.67674370    -0.85000
Zr2151     Zr  0.07143968  0.86848944  0.76940299     2.26400
Zr2152     Zr  0.16828064  0.84449124  0.76848872     2.06300
Zr2153     Zr  0.06108287  0.83107895  0.68798538     2.10000
Zr2154     Zr  0.10550804  0.76438294  0.74706059     1.78800
O2155       O  0.01860113  0.85953611  0.65252483    -0.93800
O2156       O  0.12112719  0.73443262  0.79642551    -0.41600
O2157       O  0.06895880  0.81590734  0.73956052    -0.78300
O2158       O  0.11075162  0.81671314  0.77765315    -0.97000
O2159       O  0.12857478  0.89464235  0.75871288    -0.90300
O2160       O  0.06962185  0.88522308  0.71549895    -0.93100
C2161       C  0.18136423  0.72617113  0.71229967     1.00600
C2162       C  0.11367454  0.84023144  0.61981541     1.13600
C2163       C  0.24041752  0.82846694  0.72141633     1.04400
O2164       O  0.20799397  0.81234903  0.80414506    -0.95300
O2165       O  0.14918088  0.84198003  0.82303276    -0.91000
O2166       O  0.09043933  0.85665274  0.82344707    -0.84100
C2167       C  0.11911667  0.84612751  0.83714917     1.11000
O2168       O  0.17074151  0.93818881  0.66742802    -0.97200
Zr2169     Zr  0.12793898  0.90961038  0.70391609     1.88900
O2170       O  0.07863859  0.93799794  0.76877948    -0.73900
O2171       O  0.19542545  0.90246655  0.78059522    -0.53100
O2172       O  0.16881989  0.95319854  0.72582294    -0.97800
O2173       O  0.10524178  0.93511349  0.65500723    -0.55000
O2174       O  0.08342628  0.95087137  0.71795462    -0.74400
C2175       C  0.08105594  0.96141423  0.74535145     0.97900
O2176       O  0.02440358  0.87542322  0.80858214    -0.63200
O2177       O  0.03204236  0.77439930  0.67467239    -0.58000
O2178       O  0.00690738  0.86761862  0.76179064    -0.94700
O2179       O  0.00415033  0.84764158  0.71278900    -0.93100
O2180       O  0.07403998  0.71769875  0.71928084    -0.93500
O2181       O  0.05856620  0.73400825  0.77807466    -0.92300
C2182       C  0.98935132  0.85943729  0.73776616     1.16800
H2183       H  0.09958884  0.76252482  0.67964515     0.32700
H2184       H  0.10724679  0.80432931  0.79750877     0.43600
H2185       H  0.04968661  0.90081826  0.71057380     0.37100
H2186       H  0.19297758  0.87561589  0.70912916     0.33600
H2187       H  0.12605450  0.70885483  0.79139665     0.25400
H2188       H  0.20340481  0.89896518  0.80229591     0.31300
H2189       H  0.15570199  0.96400483  0.74323938     0.37200
H2190       H  0.09311920  0.70240399  0.71063600     0.31700
H2191       H  0.00623979  0.77935730  0.67651850     0.30600
H2192       H  0.00679325  0.83903225  0.64245298     0.32200
H2193       H  0.07912466  0.93129125  0.65652700     0.31200
H2194       H  0.04272041  0.75394419  0.78439858     0.35200
H2195       H  0.02348225  0.85230704  0.82120945     0.27900
H2196       H  0.21773626  0.78018734  0.64877854     0.32200
H2197       H  0.19002586  0.92013476  0.66535431     0.35000
H2198       H  0.03642669  0.77278774  0.65205228     0.27600
H2199       H  0.03328883  0.89390461  0.82278247     0.40500
H2200       H  0.20652313  0.78657340  0.79831675     0.30600
H2201       H  0.14476297  0.74469918  0.80130569     0.38200
H2202       H  0.11313425  0.91825512  0.63893601     0.30000
H2203       H  0.21774432  0.90369351  0.76805987     0.30100
H2204       H  0.21185189  0.81993760  0.63554296     0.30400
Zr2205     Zr  0.79750724  0.78129031  0.93581931     2.17500
O2206       O  0.78582739  0.74370465  0.89153864    -0.52000
O2207       O  0.73305626  0.76707610  0.93880258    -0.75200
O2208       O  0.81103583  0.71792278  0.94939668    -0.82000
O2209       O  0.83338112  0.86165427  0.88215224    -0.83700
O2210       O  0.82302780  0.71538101  0.49445203    -0.79400
O2211       O  0.81570173  0.80218251  0.88302377    -0.91000
O2212       O  0.71566672  0.78851592  0.98497388    -0.77000
O2213       O  0.78065856  0.78109782  0.98924415    -0.86400
O2214       O  0.77376617  0.84125409  0.94150352    -0.86100
O2215       O  0.85129988  0.77049485  0.96485321    -0.72900
O2216       O  0.84349910  0.82524475  0.92594444    -0.85000
Zr2217     Zr  0.85883019  0.87288056  0.51506136     2.26400
Zr2218     Zr  0.82839536  0.77510249  0.51725467     2.06300
Zr2219     Zr  0.82229586  0.88460099  0.93476276     2.10000
Zr2220     Zr  0.75409246  0.84463502  0.49322306     1.78800
O2221       O  0.84601813  0.92918618  0.89649527    -0.93800
O2222       O  0.72575125  0.82763188  0.54296180    -0.41600
O2223       O  0.80947066  0.87588353  0.98649454    -0.78300
O2224       O  0.80581328  0.83528626  0.52422623    -0.97000
O2225       O  0.87987548  0.81339419  0.50610955    -0.90300
O2226       O  0.87630659  0.87342923  0.96145155    -0.93100
C2227       C  0.71093396  0.76752835  0.96186896     1.00600
C2228       C  0.82859581  0.83103892  0.86887267     1.13600
C2229       C  0.82085527  0.69875808  0.97336063     1.04400
O2230       O  0.78531277  0.73981945  0.54889926    -0.95300
O2231       O  0.82926549  0.79355329  0.57154349    -0.91000
O2232       O  0.84778465  0.85263015  0.56998758    -0.84100
C2233       C  0.83594345  0.82368921  0.58478185     1.11000
O2234       O  0.91719353  0.76682636  0.91614732    -0.97200
Zr2235     Zr  0.89705080  0.81321396  0.95119020     1.88900
O2236       O  0.92702734  0.86380626  0.51124975    -0.73900
O2237       O  0.87783097  0.74167196  0.54037042    -0.53100
O2238       O  0.94567729  0.77709179  0.97277364    -0.97800
O2239       O  0.91711684  0.83464335  0.89959353    -0.55000
O2240       O  0.93695771  0.86032906  0.46029484    -0.74400
C2241       C  0.94873072  0.86186457  0.48731145     0.97900
O2242       O  0.87145869  0.91931801  0.55266364    -0.63200
O2243       O  0.76656507  0.91534413  0.92266565    -0.58000
O2244       O  0.85985356  0.93887532  0.50736238    -0.94700
O2245       O  0.84182867  0.94208057  0.95858166    -0.93100
O2246       O  0.71198957  0.87246263  0.96477285    -0.93500
O2247       O  0.73009643  0.89521527  0.52177563    -0.92300
C2248       C  0.85373634  0.95540376  0.98397329     1.16800
H2249       H  0.75439023  0.84570231  0.92737275     0.32700
H2250       H  0.79478396  0.83897124  0.54410882     0.43600
H2251       H  0.89185702  0.89380817  0.95605163     0.37100
H2252       H  0.86367492  0.74796586  0.96033961     0.33600
H2253       H  0.69996365  0.82638737  0.53852848     0.25400
H2254       H  0.86674626  0.71935672  0.54992767     0.31300
H2255       H  0.93511687  0.75273990  0.97755184     0.37200
H2256       H  0.68968539  0.85865336  0.96941669     0.31700
H2257       H  0.76271096  0.93183238  0.94002334     0.30600
H2258       H  0.87207435  0.92912866  0.89983315     0.32200
H2259       H  0.94329656  0.83729820  0.90111629     0.31200
H2260       H  0.74310254  0.91696480  0.51322386     0.35200
H2261       H  0.84993791  0.92103039  0.56611433     0.27900
H2262       H  0.76857572  0.72485802  0.89924419     0.32200
H2263       H  0.89536153  0.75910487  0.90549071     0.35000
H2264       H  0.77237927  0.93182004  0.90456005     0.27600
H2265       H  0.89004364  0.90880037  0.56635782     0.40500
H2266       H  0.76581260  0.73413178  0.53458902     0.30600
H2267       H  0.73272058  0.80194986  0.54703390     0.38200
H2268       H  0.90830906  0.85996304  0.89748251     0.30000
H2269       H  0.89172334  0.73297840  0.52245964     0.30100
H2270       H  0.80817810  0.73015758  0.88797974     0.30400
Zr2271     Zr  0.79714120  0.77814111  0.68727994     2.17500
O2272       O  0.78722970  0.73629614  0.64559612    -0.52000
O2273       O  0.73241064  0.76541451  0.68949783    -0.75200
O2274       O  0.81200582  0.71512757  0.70477906    -0.82000
O2275       O  0.83053835  0.85724345  0.63116014    -0.83700
O2276       O  0.82282704  0.71320700  0.75661617    -0.79400
O2277       O  0.81443471  0.79723683  0.63320031    -0.91000
O2278       O  0.71303835  0.79081302  0.73359727    -0.77000
O2279       O  0.77918564  0.78136158  0.74041559    -0.86400
O2280       O  0.77229221  0.83818527  0.69121330    -0.86100
O2281       O  0.85023087  0.76996478  0.71773961    -0.72900
O2282       O  0.84262224  0.82257597  0.67594134    -0.85000
Zr2283     Zr  0.86004247  0.87262227  0.76451496     2.26400
Zr2284     Zr  0.83193546  0.77509285  0.77113646     2.06300
Zr2285     Zr  0.82005399  0.88210676  0.68312242     2.10000
Zr2286     Zr  0.75595937  0.84075368  0.74430870     1.78800
O2287       O  0.84682523  0.92674806  0.64652141    -0.93800
O2288       O  0.72742041  0.82391031  0.79402676    -0.41600
O2289       O  0.80743373  0.87637178  0.73502829    -0.78300
O2290       O  0.80764266  0.83476377  0.77586249    -0.97000
O2291       O  0.88244723  0.81330971  0.75781782    -0.90300
O2292       O  0.87408099  0.87321876  0.71043566    -0.93100
C2293       C  0.70903894  0.76853248  0.71137013     1.00600
C2294       C  0.82635804  0.82622481  0.61835099     1.13600
C2295       C  0.82049281  0.69813685  0.73045709     1.04400
O2296       O  0.79521344  0.73874165  0.80775899    -0.95300
O2297       O  0.83330730  0.79683775  0.82385022    -0.91000
O2298       O  0.84917200  0.85654569  0.82005316    -0.84100
C2299       C  0.83866851  0.82788513  0.83580478     1.11000
O2300       O  0.91829274  0.76172108  0.67404948    -0.97200
Zr2301     Zr  0.89560199  0.81253736  0.70307814     1.88900
O2302       O  0.92806332  0.86528886  0.76057464    -0.73900
O2303       O  0.88632862  0.74629046  0.78969118    -0.53100
O2304       O  0.94262469  0.77910530  0.72993114    -0.97800
O2305       O  0.91627489  0.82807052  0.65036281    -0.55000
O2306       O  0.93781200  0.85846064  0.70993754    -0.74400
C2307       C  0.94962532  0.86254364  0.73675615     0.97900
O2308       O  0.87990903  0.91869956  0.80009168    -0.63200
O2309       O  0.76483925  0.91054851  0.66608357    -0.58000
O2310       O  0.85511025  0.93799422  0.75593607    -0.94700
O2311       O  0.83342421  0.94150000  0.70707156    -0.93100
O2312       O  0.71518682  0.87872807  0.71392583    -0.93500
O2313       O  0.72863182  0.88983560  0.77257071    -0.92300
C2314       C  0.84493595  0.95636282  0.73201187     1.16800
H2315       H  0.75269671  0.84176202  0.67715117     0.32700
H2316       H  0.79636798  0.83937012  0.79549120     0.43600
H2317       H  0.88925686  0.89364542  0.70425374     0.37100
H2318       H  0.86283127  0.74756595  0.71474123     0.33600
H2319       H  0.70164180  0.82248808  0.78958049     0.25400
H2320       H  0.87839795  0.72268426  0.79932526     0.31300
H2321       H  0.96471553  0.78530056  0.71807366     0.37200
H2322       H  0.69113014  0.86966459  0.72012078     0.31700
H2323       H  0.76883410  0.93693232  0.66850584     0.30600
H2324       H  0.87213857  0.91950260  0.64494486     0.32200
H2325       H  0.94258846  0.82748047  0.65145089     0.31200
H2326       H  0.74428210  0.91122624  0.76808347     0.35200
H2327       H  0.85981712  0.92315865  0.81460097     0.27900
H2328       H  0.76960624  0.71823318  0.65405299     0.32200
H2329       H  0.89728719  0.75221698  0.66322701     0.35000
H2330       H  0.76485805  0.90764485  0.64332965     0.27600
H2331       H  0.89831585  0.90662269  0.81306165     0.40500
H2332       H  0.81235244  0.72506172  0.82092809     0.30600
H2333       H  0.73451619  0.79829831  0.79826537     0.38200
H2334       H  0.91056751  0.85422409  0.64720174     0.30000
H2335       H  0.89928592  0.73960957  0.77059169     0.30100
H2336       H  0.80968061  0.72244064  0.64374809     0.30400
Zr2337     Zr  0.57582545  0.58722277  0.91243826     2.17500
O2338       O  0.53246388  0.56262600  0.87679298    -0.52000
O2339       O  0.58116303  0.51746777  0.91951652    -0.75200
O2340       O  0.59227901  0.59880498  0.85702431    -0.82000
O2341       O  0.50850411  0.61919823  0.96442754    -0.83700
O2342       O  0.65045679  0.61591060  0.85499760    -0.79400
O2343       O  0.51148383  0.59598536  0.91659343    -0.91000
O2344       O  0.58764894  0.50834968  0.97063180    -0.77000
O2345       O  0.63353703  0.56341244  0.92205952    -0.86400
O2346       O  0.57351645  0.57383729  0.96704048    -0.86100
O2347       O  0.61465715  0.63986774  0.90114687    -0.72900
O2348       O  0.57263260  0.64150692  0.94021740    -0.85000
Zr2349     Zr  0.66580147  0.65315946  0.99145347     2.26400
Zr2350     Zr  0.67263743  0.61380939  0.90850787     2.06300
Zr2351     Zr  0.56498739  0.62971427  0.99230666     2.10000
Zr2352     Zr  0.63267230  0.55143490  0.97733586     1.78800
O2353       O  0.53764237  0.68635269  0.00774711    -0.93800
O2354       O  0.66661787  0.50135456  0.95610102    -0.41600
O2355       O  0.62261024  0.60659499  0.00146238    -0.78300
O2356       O  0.67496142  0.59752819  0.96324870    -0.97000
O2357       O  0.66563048  0.66864636  0.93696008    -0.90300
O2358       O  0.60772950  0.67883593  0.98431638    -0.93100
C2359       C  0.58322639  0.49582991  0.94418825     1.00600
C2360       C  0.49366923  0.60847473  0.93924019     1.13600
C2361       C  0.62029996  0.61045341  0.84200895     1.04400
O2362       O  0.70197104  0.55587042  0.90065198    -0.95300
O2363       O  0.72667452  0.64072063  0.92836628    -0.91000
O2364       O  0.72744717  0.63984159  0.97994078    -0.84100
C2365       C  0.74096655  0.63062912  0.95398551     1.11000
O2366       O  0.56126913  0.71576693  0.89620543    -0.97200
Zr2367     Zr  0.60839429  0.69365505  0.93027849     1.88900
O2368       O  0.67780817  0.71901433  0.98790499    -0.73900
O2369       O  0.71612528  0.63485121  0.86906167    -0.53100
O2370       O  0.62160887  0.72850476  0.88217565    -0.97800
O2371       O  0.57355925  0.73811593  0.95818090    -0.55000
O2372       O  0.66171930  0.73373914  0.93899095    -0.74400
C2373       C  0.68096949  0.73932249  0.96312918     0.97900
O2374       O  0.70543152  0.67493991  0.53006228    -0.63200
O2375       O  0.52017708  0.60843833  0.53022525    -0.58000
O2376       O  0.64606635  0.63491405  0.54378570    -0.94700
O2377       O  0.58698441  0.62031220  0.54500977    -0.93100
O2378       O  0.61593475  0.53017573  0.02976664    -0.93500
O2379       O  0.67999178  0.53119841  0.01195230    -0.92300
C2380       C  0.61757463  0.62321011  0.55836002     1.16800
H2381       H  0.55329525  0.55855348  0.97286854     0.32700
H2382       H  0.69653352  0.58477729  0.96837437     0.43600
H2383       H  0.60407296  0.69911107  0.99758847     0.37100
H2384       H  0.61004287  0.65201040  0.88150639     0.33600
H2385       H  0.65789418  0.49842874  0.93476971     0.25400
H2386       H  0.71700086  0.61602391  0.85323260     0.31300
H2387       H  0.63314331  0.71112572  0.86826226     0.37200
H2388       H  0.58985691  0.53389210  0.03110439     0.31700
H2389       H  0.49705094  0.61950413  0.52457486     0.30600
H2390       H  0.51260162  0.68454211  0.00101285     0.32200
H2391       H  0.54843410  0.73029912  0.95620924     0.31200
H2392       H  0.68698042  0.55325919  0.02295483     0.35200
H2393       H  0.69058207  0.68766913  0.54537331     0.27900
H2394       H  0.54519700  0.54297678  0.86618985     0.32200
H2395       H  0.53982450  0.70166924  0.90305996     0.35000
H2396       H  0.51387167  0.58190838  0.02235256     0.27600
H2397       H  0.71296045  0.64920571  0.04364684     0.40500
H2398       H  0.68834197  0.54455208  0.88399554     0.30600
H2399       H  0.69115586  0.51101954  0.95312645     0.38200
H2400       H  0.57554769  0.76089224  0.94521307     0.30000
H2401       H  0.70557370  0.65655244  0.85849523     0.30100
H2402       H  0.52835946  0.58158337  0.86027626     0.30400
Zr2403     Zr  0.66367069  0.65727853  0.74186266     2.17500
O2404       O  0.70067812  0.67162699  0.78593828    -0.52000
O2405       O  0.67282045  0.72333025  0.73812893    -0.75200
O2406       O  0.72585060  0.64699376  0.72780912    -0.82000
O2407       O  0.58679398  0.61845980  0.79510614    -0.83700
O2408       O  0.72556934  0.64683885  0.67594442    -0.79400
O2409       O  0.64521987  0.63570322  0.79484956    -0.91000
O2410       O  0.66007646  0.73519523  0.68809815    -0.77000
O2411       O  0.66341497  0.67262329  0.68750678    -0.86400
O2412       O  0.60506998  0.68150793  0.73413380    -0.86100
O2413       O  0.67439296  0.60241836  0.71356443    -0.72900
O2414       O  0.62120483  0.61000551  0.75195208    -0.85000
Zr2415     Zr  0.57598755  0.58861473  0.66266890     2.26400
Zr2416     Zr  0.67120035  0.61824762  0.65878648     2.06300
Zr2417     Zr  0.56322929  0.63171347  0.74211459     2.10000
Zr2418     Zr  0.60596052  0.69619996  0.68009040     1.78800
O2419       O  0.51849958  0.61249654  0.78096499    -0.93800
O2420       O  0.62132866  0.72453675  0.62958025    -0.41600
O2421       O  0.57109886  0.64323420  0.69001546    -0.78300
O2422       O  0.61271428  0.64247723  0.65099745    -0.97000
O2423       O  0.63400604  0.56647067  0.67263266    -0.90300
O2424       O  0.57390784  0.57582839  0.71727127    -0.93100
C2425       C  0.67808052  0.74184570  0.71268281     1.00600
C2426       C  0.61704723  0.62235037  0.80880967     1.13600
C2427       C  0.74003110  0.63828517  0.70181169     1.04400
O2428       O  0.70913740  0.64125383  0.61613381    -0.95300
O2429       O  0.65067529  0.61865150  0.60494286    -0.91000
O2430       O  0.59287731  0.60015571  0.60704392    -0.84100
C2431       C  0.62073919  0.61224816  0.59190446     1.11000
O2432       O  0.68287218  0.54067988  0.76224629    -0.97200
Zr2433     Zr  0.63339650  0.55527968  0.72809929     1.88900
O2434       O  0.58116212  0.51859297  0.67176089    -0.73900
O2435       O  0.70056982  0.55985818  0.65341261    -0.53100
O2436       O  0.66890096  0.50637882  0.70727020    -0.97800
O2437       O  0.61341162  0.53170129  0.77921646    -0.55000
O2438       O  0.59140732  0.50905925  0.72256351    -0.74400
C2439       C  0.58481219  0.49683919  0.69636148     0.97900
O2440       O  0.53393600  0.56250894  0.62666168    -0.63200
O2441       O  0.53470917  0.68976627  0.75174147    -0.58000
O2442       O  0.51202870  0.59666801  0.66680401    -0.94700
O2443       O  0.50720600  0.61359608  0.71668311    -0.93100
O2444       O  0.57559923  0.74493345  0.70648304    -0.93500
O2445       O  0.55549422  0.72211085  0.65218645    -0.92300
C2446       C  0.49347683  0.60379054  0.69078135     1.16800
H2447       H  0.60079254  0.70184124  0.74720778     0.32700
H2448       H  0.60804624  0.65406804  0.63111273     0.43600
H2449       H  0.55467832  0.55927078  0.72316870     0.37100
H2450       H  0.69658700  0.59079062  0.71843368     0.33600
H2451       H  0.62176967  0.75101451  0.63310998     0.25400
H2452       H  0.71407572  0.56218779  0.63355999     0.31300
H2453       H  0.66458021  0.48530550  0.72186814     0.37200
H2454       H  0.58831696  0.76741535  0.69916197     0.31700
H2455       H  0.51952288  0.69444685  0.73344018     0.30600
H2456       H  0.51948294  0.58555519  0.78165203     0.32200
H2457       H  0.62434344  0.54762079  0.79450250     0.31200
H2458       H  0.53990700  0.70098440  0.64831624     0.35200
H2459       H  0.52878357  0.58166203  0.61056238     0.27900
H2460       H  0.71842569  0.68967789  0.77768429     0.32200
H2461       H  0.68709736  0.56320348  0.77359779     0.35000
H2462       H  0.51765267  0.68451152  0.76908794     0.27600
H2463       H  0.54769074  0.54393680  0.61559899     0.40500
H2464       H  0.70454694  0.66778575  0.61473641     0.30600
H2465       H  0.64664558  0.71816037  0.62612910     0.38200
H2466       H  0.62543625  0.50795567  0.78233166     0.30000
H2467       H  0.71889347  0.55884632  0.66969267     0.30100
H2468       H  0.71471799  0.64933773  0.79043790     0.30400
Zr2469     Zr  0.13323516  0.18314131  0.94104200     2.17500
O2470       O  0.14989476  0.22149450  0.89563716    -0.52000
O2471       O  0.19642944  0.20280579  0.94587027    -0.75200
O2472       O  0.11211067  0.24360282  0.95489658    -0.82000
O2473       O  0.10083332  0.10376788  0.88950507    -0.83700
O2474       O  0.11792451  0.24127786  0.50522632    -0.79400
O2475       O  0.11239184  0.16477175  0.88853109    -0.91000
O2476       O  0.21539842  0.17767326  0.99140554    -0.77000
O2477       O  0.14870795  0.17799841  0.49443983    -0.86400
O2478       O  0.16191089  0.12515764  0.94798421    -0.86100
O2479       O  0.07820919  0.18615425  0.97145796    -0.72900
O2480       O  0.09132760  0.13574434  0.93353479    -0.85000
Zr2481     Zr  0.07252497  0.08379712  0.52680014     2.26400
Zr2482     Zr  0.09524159  0.18289900  0.52556712     2.06300
Zr2483     Zr  0.11753052  0.07813806  0.94133409     2.10000
Zr2484     Zr  0.17459951  0.11987115  0.50153731     1.78800
O2485       O  0.10926292  0.03685878  0.89907584    -0.93800
O2486       O  0.20120122  0.13293405  0.55130359    -0.41600
O2487       O  0.12435096  0.08286767  0.49498379    -0.78300
O2488       O  0.12288194  0.12440250  0.53346589    -0.97000
O2489       O  0.04684778  0.14188167  0.51625123    -0.90300
O2490       O  0.06269039  0.08207182  0.96994469    -0.93100
C2491       C  0.21859956  0.20115519  0.96852339     1.00600
C2492       C  0.10152721  0.13547645  0.87534849     1.13600
C2493       C  0.10707534  0.25586946  0.47976000     1.04400
O2494       O  0.11202850  0.22281657  0.56678127    -0.95300
O2495       O  0.10004351  0.16038442  0.57957186    -0.91000
O2496       O  0.08596597  0.10008480  0.58099523    -0.84100
C2497       C  0.09659033  0.12923960  0.59408521     1.11000
O2498       O  0.01703388  0.18428094  0.91954284    -0.97200
Zr2499     Zr  0.03632116  0.14029125  0.95954171     1.88900
O2500       O  0.00517830  0.09418616  0.52939867    -0.73900
O2501       O  0.03611384  0.20763427  0.53469332    -0.53100
O2502       O  0.98891365  0.18136729  0.48313929    -0.97800
O2503       O  0.01217392  0.11946641  0.91098728    -0.55000
O2504       O  0.99414935  0.09530442  0.47901850    -0.74400
C2505       C  0.98289197  0.09588468  0.50659950     0.97900
O2506       O  0.05822397  0.03493024  0.56506491    -0.63200
O2507       O  0.17709181  0.05454258  0.93171914    -0.58000
O2508       O  0.07456437  0.01822400  0.51787532    -0.94700
O2509       O  0.09861863  0.01807741  0.96394481    -0.93100
O2510       O  0.22610655  0.09450897  0.97332492    -0.93500
O2511       O  0.19914793  0.06538749  0.52692032    -0.92300
C2512       C  0.08292283  0.00168880  0.49316939     1.16800
H2513       H  0.18217322  0.12361346  0.93405689     0.32700
H2514       H  0.13558526  0.11978017  0.55233377     0.43600
H2515       H  0.04764127  0.06194680  0.96451783     0.37100
H2516       H  0.06349666  0.20703842  0.96711584     0.33600
H2517       H  0.22719012  0.13392700  0.54706118     0.25400
H2518       H  0.03735515  0.21855467  0.55528755     0.31300
H2519       H  0.99713711  0.20652412  0.47784890     0.37200
H2520       H  0.24641578  0.11163042  0.97485867     0.31700
H2521       H  0.17420227  0.02772658  0.93336502     0.30600
H2522       H  0.08383633  0.02956815  0.90053568     0.32200
H2523       H  0.99266753  0.10229821  0.91706041     0.31200
H2524       H  0.18305584  0.06005614  0.54494933     0.35200
H2525       H  0.07948275  0.03185490  0.57825876     0.27900
H2526       H  0.16344376  0.24214353  0.90382685     0.32200
H2527       H  0.03859135  0.19899877  0.91414295     0.35000
H2528       H  0.18179490  0.06002983  0.90935449     0.27600
H2529       H  0.03975775  0.04513458  0.57883496     0.40500
H2530       H  0.13785662  0.22746116  0.56359668     0.30600
H2531       H  0.19455064  0.15846648  0.55503516     0.38200
H2532       H  0.03096657  0.10386188  0.90233201     0.30000
H2533       H  0.03424021  0.22864397  0.51979227     0.30100
H2534       H  0.12730643  0.23234788  0.88827867     0.30400
Zr2535     Zr  0.13683616  0.17864763  0.68979542     2.17500
O2536       O  0.15604620  0.21399811  0.64337392    -0.52000
O2537       O  0.19959410  0.19822367  0.69667030    -0.75200
O2538       O  0.11350181  0.23988655  0.69173698    -0.82000
O2539       O  0.10614685  0.09623927  0.64247732    -0.83700
O2540       O  0.10893361  0.24351498  0.74307629    -0.79400
O2541       O  0.12097455  0.15637740  0.63823722    -0.91000
O2542       O  0.21375145  0.17737603  0.74486893    -0.77000
O2543       O  0.14774106  0.18113601  0.74433183    -0.86400
O2544       O  0.16454602  0.12120078  0.70203158    -0.86100
O2545       O  0.07908744  0.18342139  0.71637798    -0.72900
O2546       O  0.09502792  0.13115151  0.68276764    -0.85000
Zr2547     Zr  0.07042401  0.08652036  0.77528469     2.26400
Zr2548     Zr  0.09114812  0.18618964  0.77104633     2.06300
Zr2549     Zr  0.11974407  0.07448451  0.69647680     2.10000
Zr2550     Zr  0.17417496  0.12406477  0.75625896     1.78800
O2551       O  0.11122286  0.02682790  0.65931128    -0.93800
O2552       O  0.19532798  0.14628365  0.80544561    -0.41600
O2553       O  0.12594673  0.08440165  0.74831820    -0.78300
O2554       O  0.11926720  0.12876751  0.78353767    -0.97000
O2555       O  0.04496097  0.14315306  0.75914152    -0.90300
O2556       O  0.06233797  0.08035098  0.72073527    -0.93100
C2557       C  0.21956594  0.19854794  0.72076059     1.00600
C2558       C  0.10907499  0.12679817  0.62661094     1.13600
C2559       C  0.09966902  0.25411695  0.71556061     1.04400
O2560       O  0.10686003  0.23854111  0.80114715    -0.95300
O2561       O  0.09560245  0.16817057  0.82658757    -0.91000
O2562       O  0.07835124  0.10859037  0.82945426    -0.84100
C2563       C  0.08967289  0.13799059  0.84218479     1.11000
O2564       O  0.01927487  0.18231035  0.66443083    -0.97200
Zr2565     Zr  0.03794515  0.13760741  0.70408956     1.88900
O2566       O  0.00208130  0.09422479  0.77005795    -0.73900
O2567       O  0.03139677  0.20245714  0.78848216    -0.53100
O2568       O  0.98553631  0.17427261  0.71440038    -0.97800
O2569       O  0.02811055  0.10963678  0.65450066    -0.55000
O2570       O  0.99529444  0.09289638  0.71888310    -0.74400
C2571       C  0.98164220  0.09408460  0.74567807     0.97900
O2572       O  0.05447376  0.03976702  0.81492298    -0.63200
O2573       O  0.17978988  0.04986888  0.69238022    -0.58000
O2574       O  0.07480328  0.01996130  0.77008428    -0.94700
O2575       O  0.09944593  0.01707032  0.72192848    -0.93100
O2576       O  0.22442706  0.09124798  0.73473096    -0.93500
O2577       O  0.19849942  0.07843611  0.79251008    -0.92300
C2578       C  0.08526516  0.00194011  0.74672425     1.16800
H2579       H  0.18596831  0.11813389  0.68976774     0.32700
H2580       H  0.13055721  0.12473725  0.80315535     0.43600
H2581       H  0.04769674  0.05960490  0.71613218     0.37100
H2582       H  0.06421761  0.20251993  0.70920015     0.33600
H2583       H  0.22154429  0.14826760  0.80291879     0.25400
H2584       H  0.02394083  0.18235471  0.80318209     0.31300
H2585       H  0.98548707  0.17756957  0.73708340     0.37200
H2586       H  0.24508532  0.10778293  0.73699382     0.31700
H2587       H  0.17793450  0.02501560  0.70198722     0.30600
H2588       H  0.13082049  0.02989309  0.64379541     0.32200
H2589       H  0.00238465  0.11259535  0.65050598     0.31200
H2590       H  0.17836333  0.06157386  0.79742032     0.35200
H2591       H  0.07390974  0.03954844  0.83024109     0.27900
H2592       H  0.17799534  0.20194373  0.63610278     0.32200
H2593       H  0.04020585  0.18538983  0.65030718     0.35000
H2594       H  0.18388460  0.04609738  0.66999682     0.27600
H2595       H  0.03360515  0.04965817  0.82603454     0.40500
H2596       H  0.13049839  0.23256082  0.80983937     0.30600
H2597       H  0.18706223  0.17182364  0.80579247     0.38200
H2598       H  0.03098471  0.08318251  0.65892259     0.30000
H2599       H  0.03505947  0.22322942  0.80208076     0.30100
H2600       H  0.16441603  0.23770995  0.65078036     0.30400
Zr2601     Zr  0.26537614  0.31365922  0.99817429     2.17500
O2602       O  0.22728112  0.29303510  0.54529998    -0.52000
O2603       O  0.24970875  0.24868725  0.99391123    -0.75200
O2604       O  0.20422129  0.32795378  0.98428484    -0.82000
O2605       O  0.34204198  0.34818039  0.54953657    -0.83700
O2606       O  0.20200612  0.33078202  0.93173602    -0.79400
O2607       O  0.28332502  0.33198463  0.55131307    -0.91000
O2608       O  0.26830456  0.23609362  0.94555165    -0.77000
O2609       O  0.26645908  0.29862211  0.94491174    -0.86400
O2610       O  0.32325330  0.28771665  0.99080482    -0.86100
O2611       O  0.25524016  0.36946868  0.96762281    -0.72900
O2612       O  0.30878202  0.35965518  0.00508869    -0.85000
Zr2613     Zr  0.35719546  0.38038766  0.91418281     2.26400
Zr2614     Zr  0.25983727  0.35376737  0.91417202     2.06300
Zr2615     Zr  0.36629554  0.33613857  0.99588589     2.10000
Zr2616     Zr  0.32344204  0.27391460  0.93743701     1.78800
O2617       O  0.40726641  0.35815417  0.53278799    -0.93800
O2618       O  0.31025586  0.24932998  0.88701118    -0.41600
O2619       O  0.35977660  0.32539078  0.94442536    -0.78300
O2620       O  0.31811832  0.32841754  0.90637577    -0.97000
O2621       O  0.29908957  0.40402485  0.92339508    -0.90300
O2622       O  0.35757786  0.39269493  0.96809132    -0.93100
C2623       C  0.24771488  0.22975860  0.96946468     1.00600
C2624       C  0.31187184  0.34456286  0.56405897     1.13600
C2625       C  0.18727052  0.33213254  0.95861218     1.04400
O2626       O  0.21843012  0.33402204  0.87512693    -0.95300
O2627       O  0.27975394  0.35312596  0.86023380    -0.91000
O2628       O  0.33799698  0.37067172  0.85971782    -0.84100
C2629       C  0.30971826  0.35905465  0.84615287     1.11000
O2630       O  0.24984691  0.43474255  0.01155589    -0.97200
Zr2631     Zr  0.29827090  0.41499484  0.97799589     1.88900
O2632       O  0.35272487  0.45049795  0.91758069    -0.73900
O2633       O  0.23195852  0.41291323  0.90604855    -0.53100
O2634       O  0.26479837  0.46468033  0.95349947    -0.97800
O2635       O  0.31394874  0.43574109  0.02908931    -0.55000
O2636       O  0.34269772  0.45899904  0.96813620    -0.74400
C2637       C  0.34929854  0.47181997  0.94112528     0.97900
O2638       O  0.40300145  0.39656327  0.87514411    -0.63200
O2639       O  0.39297236  0.27701534  0.00796174    -0.58000
O2640       O  0.42229649  0.37359403  0.92116915    -0.94700
O2641       O  0.42426798  0.35189328  0.97099286    -0.93100
O2642       O  0.35080419  0.22325042  0.96625581    -0.93500
O2643       O  0.37356712  0.24656756  0.91063848    -0.92300
C2644       C  0.43975687  0.36338430  0.94539823     1.16800
H2645       H  0.32660281  0.26700492  0.00490379     0.32700
H2646       H  0.32278117  0.31701167  0.88701828     0.43600
H2647       H  0.37730108  0.40831412  0.97310122     0.37100
H2648       H  0.23300073  0.38159695  0.97160002     0.33600
H2649       H  0.30405695  0.22342097  0.89154541     0.25400
H2650       H  0.22690689  0.41454105  0.88355649     0.31300
H2651       H  0.26926183  0.48588894  0.96644573     0.37200
H2652       H  0.33103725  0.20573644  0.97060208     0.31700
H2653       H  0.41373970  0.27719503  0.49968008     0.30600
H2654       H  0.40480986  0.38498195  0.53115823     0.32200
H2655       H  0.31651210  0.46251747  0.02639383     0.31200
H2656       H  0.38767398  0.26755077  0.90203108     0.35200
H2657       H  0.40515100  0.37544418  0.86162683     0.27900
H2658       H  0.23987792  0.27189489  0.55484954     0.32200
H2659       H  0.24119045  0.41218274  0.02258586     0.35000
H2660       H  0.38913649  0.27297607  0.03061605     0.27600
H2661       H  0.39242651  0.41611718  0.86182471     0.40500
H2662       H  0.22102865  0.30720587  0.87504673     0.30600
H2663       H  0.28743056  0.26074919  0.88089418     0.38200
H2664       H  0.33854897  0.42692870  0.03233646     0.30000
H2665       H  0.20822060  0.41008741  0.91621235     0.30100
H2666       H  0.20810583  0.28566840  0.03689336     0.30400
Zr2667     Zr  0.35608702  0.37874001  0.66528144     2.17500
O2668       O  0.40130131  0.39692056  0.62633071    -0.52000
O2669       O  0.35073977  0.44901662  0.66920532    -0.75200
O2670       O  0.33748677  0.36785808  0.61058521    -0.82000
O2671       O  0.42322830  0.35322882  0.72216755    -0.83700
O2672       O  0.27977189  0.34893517  0.61116386    -0.79400
O2673       O  0.42098003  0.37302325  0.67186433    -0.91000
O2674       O  0.34086516  0.45845991  0.71969254    -0.77000
O2675       O  0.29771189  0.40131928  0.67422550    -0.86400
O2676       O  0.35677452  0.39188279  0.71909239    -0.86100
O2677       O  0.31848501  0.32529257  0.65788707    -0.72900
O2678       O  0.35987356  0.32429930  0.69627309    -0.85000
Zr2679     Zr  0.26511100  0.31244652  0.74968401     2.26400
Zr2680     Zr  0.26002102  0.34984931  0.66506931     2.06300
Zr2681     Zr  0.36610551  0.33586023  0.74749630     2.10000
Zr2682     Zr  0.29718047  0.41360712  0.72852520     1.78800
O2683       O  0.39492506  0.27776492  0.75918087    -0.93800
O2684       O  0.26680410  0.46215732  0.69944819    -0.41600
O2685       O  0.30833714  0.35864779  0.75574680    -0.78300
O2686       O  0.25493734  0.36749775  0.71804614    -0.97000
O2687       O  0.26761613  0.29590710  0.69684859    -0.90300
O2688       O  0.32357383  0.28677933  0.74341774    -0.93100
C2689       C  0.34709708  0.47084307  0.69247263     1.00600
C2690       C  0.43846044  0.36413004  0.69634185     1.13600
C2691       C  0.30945856  0.35558385  0.59696996     1.04400
O2692       O  0.23330588  0.40725586  0.64837711    -0.95300
O2693       O  0.20176185  0.33117572  0.68431651    -0.91000
O2694       O  0.20379248  0.32772600  0.73692748    -0.84100
C2695       C  0.18697884  0.33189585  0.71120169     1.11000
O2696       O  0.37478556  0.25149902  0.65851507    -0.97200
Zr2697     Zr  0.32494407  0.27168423  0.69027303     1.88900
O2698       O  0.24888625  0.24755001  0.74558185    -0.73900
O2699       O  0.21777078  0.31973864  0.63182734    -0.53100
O2700       O  0.31144272  0.23999038  0.64320447    -0.97800
O2701       O  0.35436353  0.22347386  0.72085645    -0.55000
O2702       O  0.27062485  0.23247868  0.69870988    -0.74400
C2703       C  0.24864092  0.22726145  0.72188309     0.97900
O2704       O  0.22955860  0.29328643  0.79535861    -0.63200
O2705       O  0.40726787  0.35433680  0.78731991    -0.58000
O2706       O  0.28408122  0.33454669  0.80092584    -0.94700
O2707       O  0.34300573  0.34996466  0.79950661    -0.93100
O2708       O  0.30990261  0.43692289  0.77938310    -0.93500
O2709       O  0.24866673  0.43147883  0.76294457    -0.92300
C2710       C  0.31251056  0.34721639  0.81365750     1.16800
H2711       H  0.37623300  0.40796988  0.72380617     0.32700
H2712       H  0.23278432  0.37998958  0.72144696     0.43600
H2713       H  0.32720608  0.26657361  0.75799637     0.37100
H2714       H  0.32312672  0.31381192  0.63865947     0.33600
H2715       H  0.24281414  0.45228986  0.69536134     0.25400
H2716       H  0.21263142  0.33755483  0.61467104     0.31300
H2717       H  0.29038549  0.25273111  0.63458077     0.37200
H2718       H  0.33398686  0.42769263  0.78431719     0.31700
H2719       H  0.42651664  0.33605206  0.78712128     0.30600
H2720       H  0.40807755  0.27241780  0.73982234     0.32200
H2721       H  0.37790663  0.21971972  0.71090837     0.31200
H2722       H  0.22746093  0.43450354  0.74971721     0.35200
H2723       H  0.20875441  0.28014126  0.78726064     0.27900
H2724       H  0.39007700  0.41634463  0.61330717     0.32200
H2725       H  0.39463419  0.26819415  0.66319007     0.35000
H2726       H  0.41852659  0.37717382  0.77898291     0.27600
H2727       H  0.24376551  0.27408021  0.80606544     0.40500
H2728       H  0.24075905  0.41090375  0.62634920     0.30600
H2729       H  0.26267318  0.48135860  0.71456446     0.38200
H2730       H  0.34062937  0.20113348  0.71669351     0.30000
H2731       H  0.23123008  0.30001078  0.62202436     0.30100
H2732       H  0.40405491  0.37614848  0.61251246     0.30400
Zr2733     Zr  0.97449219  0.41097822  0.50259950     2.17500
O2734       O  0.02364751  0.41118491  0.53900541    -0.52000
O2735       O  0.96183123  0.34650181  0.50408897    -0.75200
O2736       O  0.95484314  0.40804767  0.55694558    -0.82000
O2737       O  0.03852020  0.41429617  0.93911840    -0.83700
O2738       O  0.89817235  0.42947752  0.55736036    -0.79400
O2739       O  0.03036567  0.39278471  0.98901381    -0.91000
O2740       O  0.94485635  0.32131465  0.95179606    -0.77000
O2741       O  0.90874806  0.38471727  0.99279050    -0.86400
O2742       O  0.96644606  0.39111257  0.94858055    -0.86100
O2743       O  0.93972594  0.46317755  0.51399584    -0.72900
O2744       O  0.98986681  0.45650331  0.97472013    -0.85000
Zr2745     Zr  0.89113391  0.47927726  0.92257178     2.26400
Zr2746     Zr  0.87952591  0.44311401  0.50460921     2.06300
Zr2747     Zr  0.98534076  0.44482415  0.92070956     2.10000
Zr2748     Zr  0.90659041  0.37239800  0.93855987     1.78800
O2749       O  0.02736406  0.49515105  0.91291596    -0.93800
O2750       O  0.86454213  0.32816759  0.96204048    -0.41600
O2751       O  0.92540330  0.42686810  0.91007977    -0.78300
O2752       O  0.87015558  0.42407404  0.94979295    -0.97000
O2753       O  0.89511314  0.49141426  0.97613366    -0.90300
O2754       O  0.95125847  0.49713237  0.93190460    -0.93100
C2755       C  0.96230441  0.32077179  0.97695147     1.00600
C2756       C  0.04913095  0.39802737  0.96420621     1.13600
C2757       C  0.92607771  0.41735932  0.57101727     1.04400
O2758       O  0.83810798  0.39185420  0.50527129    -0.95300
O2759       O  0.83633177  0.48904402  0.99130764    -0.91000
O2760       O  0.83008522  0.48153298  0.94064101    -0.84100
C2761       C  0.82211319  0.49791357  0.96531153     1.11000
O2762       O  0.00644785  0.52533509  0.51813628    -0.97200
Zr2763     Zr  0.95459363  0.50813581  0.98593447     1.88900
O2764       O  0.88750888  0.54494802  0.92828959    -0.73900
O2765       O  0.83434899  0.46059253  0.54241910    -0.53100
O2766       O  0.94603773  0.54571729  0.53048763    -0.97800
O2767       O  0.98915319  0.55738087  0.96047151    -0.55000
O2768       O  0.91189629  0.55479195  0.97504991    -0.74400
C2769       C  0.89200658  0.56399567  0.95226772     0.97900
O2770       O  0.85418733  0.49253693  0.87736542    -0.63200
O2771       O  0.01859807  0.41150607  0.88196544    -0.58000
O2772       O  0.90985125  0.48024580  0.86843839    -0.94700
O2773       O  0.96714416  0.46084319  0.86806032    -0.93100
O2774       O  0.92503176  0.34496076  0.89040021    -0.93500
O2775       O  0.85795471  0.36338367  0.90273187    -0.92300
C2776       C  0.93874858  0.47173308  0.85438077     1.16800
H2777       H  0.98347488  0.37311202  0.94256314     0.32700
H2778       H  0.84586589  0.41824597  0.94470114     0.43600
H2779       H  0.95817504  0.51806200  0.91889031     0.37100
H2780       H  0.94317379  0.47080544  0.53489898     0.33600
H2781       H  0.86108484  0.30984803  0.94606370     0.25400
H2782       H  0.82945511  0.43854070  0.55575520     0.31300
H2783       H  0.92215822  0.53679793  0.53740015     0.37200
H2784       H  0.93560006  0.36524469  0.87750397     0.31700
H2785       H  0.00039307  0.39878510  0.86990240     0.30600
H2786       H  0.03522079  0.49394199  0.89095799     0.32200
H2787       H  0.01314928  0.54713258  0.95700169     0.31200
H2788       H  0.85479452  0.38746560  0.89204072     0.35200
H2789       H  0.83048682  0.48157817  0.88206611     0.27900
H2790       H  0.02081263  0.38880468  0.55237023     0.32200
H2791       H  0.02064504  0.50270252  0.51823332     0.35000
H2792       H  0.02898528  0.43021286  0.86729472     0.27600
H2793       H  0.85033715  0.51919392  0.87698176     0.40500
H2794       H  0.81430064  0.40309221  0.50323098     0.30600
H2795       H  0.87801465  0.31506657  0.97855069     0.38200
H2796       H  0.99247858  0.57549318  0.97663168     0.30000
H2797       H  0.84644411  0.47771558  0.55607203     0.30100
H2798       H  0.01896713  0.43159557  0.55283181     0.30400
Zr2799     Zr  0.88982254  0.47457259  0.75246227     2.17500
O2800       O  0.84251431  0.46517102  0.79142599    -0.52000
O2801       O  0.88869940  0.54004193  0.74921503    -0.75200
O2802       O  0.91048183  0.48022979  0.80565310    -0.82000
O2803       O  0.83266533  0.49227625  0.68350813    -0.83700
O2804       O  0.96572870  0.45544632  0.80789673    -0.79400
O2805       O  0.83217312  0.49497881  0.73594197    -0.91000
O2806       O  0.92567002  0.56056908  0.71003387    -0.77000
O2807       O  0.95154310  0.48925250  0.74703505    -0.86400
O2808       O  0.89979576  0.49416585  0.69954130    -0.86100
O2809       O  0.91822597  0.41791649  0.76465377    -0.72900
O2810       O  0.86693336  0.42675271  0.72163867    -0.85000
Zr2811     Zr  0.96908431  0.40455296  0.67409968     2.26400
Zr2812     Zr  0.98029610  0.43266805  0.75770972     2.06300
Zr2813     Zr  0.87742647  0.44733025  0.66896523     2.10000
Zr2814     Zr  0.96076710  0.50859660  0.69407066     1.78800
O2815       O  0.82627098  0.40724247  0.66307508    -0.93800
O2816       O  0.00163942  0.54717964  0.72163967    -0.41600
O2817       O  0.93981916  0.46102757  0.66211182    -0.78300
O2818       O  0.99143831  0.45276267  0.70491271    -0.97000
O2819       O  0.95953424  0.38527317  0.72672041    -0.90300
O2820       O  0.90687718  0.39084075  0.67892559    -0.93100
C2821       C  0.90040839  0.56494166  0.73000816     1.00600
C2822       C  0.82192952  0.50599726  0.70904278     1.13600
C2823       C  0.93853809  0.47016466  0.82037308     1.04400
O2824       O  0.03041801  0.47338509  0.76580262    -0.95300
O2825       O  0.03206269  0.39723726  0.74519230    -0.91000
O2826       O  0.02594678  0.38478577  0.69433615    -0.84100
C2827       C  0.04311619  0.38378021  0.71993675     1.11000
O2828       O  0.84558215  0.36509141  0.76577985    -0.97200
Zr2829     Zr  0.89785143  0.37083993  0.73180035     1.88900
O2830       O  0.95738719  0.33953243  0.67566681    -0.73900
O2831       O  0.99522672  0.39047672  0.80062461    -0.53100
O2832       O  0.89870430  0.32621934  0.77495783    -0.97800
O2833       O  0.85962364  0.33545793  0.69878120    -0.55000
O2834       O  0.94173593  0.32395683  0.72431972    -0.74400
C2835       C  0.96149859  0.31977375  0.70039194     0.97900
O2836       O  0.01493747  0.40353923  0.63340241    -0.63200
O2837       O  0.85660265  0.48319366  0.62400160    -0.58000
O2838       O  0.95359770  0.40769977  0.61965525    -0.94700
O2839       O  0.89719718  0.42997677  0.61784342    -0.93100
O2840       O  0.95224557  0.54474906  0.64622494    -0.93500
O2841       O  0.01421209  0.51539350  0.66151648    -0.92300
C2842       C  0.92551743  0.41760950  0.60503696     1.16800
H2843       H  0.88746170  0.51584840  0.69295917     0.32700
H2844       H  0.01672663  0.45630611  0.70127538     0.43600
H2845       H  0.89971601  0.37313262  0.66418937     0.37100
H2846       H  0.91328118  0.41039776  0.78601985     0.33600
H2847       H  0.02425415  0.53346654  0.72244578     0.25400
H2848       H  0.97261850  0.38605478  0.81231272     0.31300
H2849       H  0.92008822  0.33269634  0.78681441     0.37200
H2850       H  0.96527637  0.56780233  0.64933479     0.31700
H2851       H  0.83027321  0.48126022  0.62468673     0.30600
H2852       H  0.81091346  0.41136568  0.68146066     0.32200
H2853       H  0.83944901  0.32710238  0.71231665     0.31200
H2854       H  0.01329433  0.49455752  0.64762205     0.35200
H2855       H  0.03436914  0.41947862  0.64040125     0.27900
H2856       H  0.84336174  0.48658511  0.80466744     0.32200
H2857       H  0.82561382  0.37442569  0.75304069     0.35000
H2858       H  0.86191367  0.50886281  0.62857169     0.27600
H2859       H  0.02485913  0.37860874  0.63445227     0.40500
H2860       H  0.04188772  0.46323861  0.78476510     0.30600
H2861       H  0.00661833  0.56809905  0.70701138     0.38200
H2862       H  0.87332542  0.31310888  0.69487568     0.30000
H2863       H  0.00002721  0.36700460  0.79096195     0.30100
H2864       H  0.85039575  0.44446179  0.80497900     0.30400
C2865       C  0.12997556  0.33614759  0.74062303    -0.12900
C2866       C  0.14894975  0.34156458  0.71251450     0.04100
C2867       C  0.13242504  0.36073064  0.68749007    -0.08200
C2868       C  0.09775921  0.37278715  0.69083826    -0.09000
C2869       C  0.07898079  0.36799994  0.71888963    -0.03500
C2870       C  0.09560352  0.34996126  0.74435733     0.03300
N2871       N  0.07913298  0.34662090  0.77443354     0.65800
H2872       H  0.14237397  0.32238975  0.76034047     0.14700
H2873       H  0.08612038  0.38791966  0.67144009     0.14400
N2874       N  0.15116456  0.37218404  0.65966560     0.73500
O2875       O  0.06890453  0.31557328  0.78448525    -0.39900
O2876       O  0.08650590  0.37019944  0.79390721    -0.39900
O2877       O  0.14591782  0.35513150  0.63527897    -0.40600
O2878       O  0.16137455  0.40493546  0.65697621    -0.40700
C2879       C  0.13981349  0.36302279  0.98712603    -0.12900
C2880       C  0.14992180  0.34453438  0.96044003     0.04100
C2881       C  0.12650635  0.34501449  0.93488881    -0.08200
C2882       C  0.09391608  0.36270029  0.93703497    -0.09000
C2883       C  0.08447457  0.38153302  0.96340903    -0.03500
C2884       C  0.10804313  0.38234450  0.98846932     0.03300
N2885       N  0.10280985  0.40642063  0.01338479     0.65800
H2886       H  0.15795858  0.36517940  0.00632209     0.14700
H2887       H  0.07587268  0.36188320  0.91762970     0.14400
N2888       N  0.13521818  0.32907423  0.90609999     0.73500
O2889       O  0.09574836  0.39310502  0.04017286    -0.39900
O2890       O  0.11695763  0.43766145  0.01097586    -0.39900
O2891       O  0.12113115  0.29886161  0.90051805    -0.40600
O2892       O  0.14385989  0.35012815  0.88338176    -0.40700
C2893       C  0.04045261  0.27099969  0.73560866    -0.12900
C2894       C  0.06497468  0.27279559  0.71086587     0.04100
C2895       C  0.05256436  0.28471739  0.68122604    -0.08200
C2896       C  0.01760195  0.29689841  0.67793380    -0.09000
C2897       C  0.99392750  0.29724500  0.70332900    -0.03500
C2898       C  0.00535242  0.28241844  0.73225318     0.03300
N2899       N  0.98216898  0.27870401  0.75876279     0.65800
H2900       H  0.04829951  0.25967046  0.75788555     0.14700
H2901       H  0.00943571  0.30736095  0.65528942     0.14400
N2902       N  0.07452106  0.28487110  0.65391567     0.73500
O2903       O  0.96784104  0.24808799  0.76497685    -0.39900
O2904       O  0.98586019  0.30052848  0.78038231    -0.39900
O2905       O  0.07135393  0.25878148  0.63592881    -0.40600
O2906       O  0.08504670  0.31521443  0.64253097    -0.40700
C2907       C  0.05392540  0.28010994  0.45376396    -0.12900
C2908       C  0.07564191  0.28047833  0.48003269     0.04100
C2909       C  0.05253187  0.29243203  0.00759425    -0.08200
C2910       C  0.01718708  0.30435157  0.00583192    -0.09000
C2911       C  0.99884529  0.30560032  0.97768089    -0.03500
C2912       C  0.01963622  0.29392310  0.45383438     0.03300
N2913       N  0.00040232  0.29282294  0.42553632     0.65800
H2914       H  0.06252937  0.26697850  0.43292461     0.14700
H2915       H  0.00386127  0.31225851  0.02695106     0.14400
N2916       N  0.06881264  0.29163432  0.03737319     0.73500
O2917       O  0.00892108  0.32610234  0.90298722    -0.39900
O2918       O  0.98352822  0.26411830  0.41978323    -0.39900
O2919       O  0.08007805  0.32123993  0.04746459    -0.40600
O2920       O  0.07407345  0.28271856  0.55787797    -0.40700
C2921       C  0.76805394  0.58810971  0.73151395    -0.12900
C2922       C  0.76678613  0.60864800  0.70336462     0.04100
C2923       C  0.78473314  0.59510266  0.67714412    -0.08200
C2924       C  0.80100511  0.56088540  0.67935293    -0.09000
C2925       C  0.80030826  0.53960172  0.70719869    -0.03500
C2926       C  0.78414474  0.55422823  0.73371301     0.03300
N2927       N  0.78320763  0.53527606  0.76329140     0.65800
H2928       H  0.75446292  0.59716301  0.75212643     0.14700
H2929       H  0.81489671  0.55131076  0.65905607     0.14400
N2930       N  0.78690921  0.61504788  0.64804271     0.73500
O2931       O  0.80576664  0.54377329  0.78323669    -0.39900
O2932       O  0.75442121  0.52032583  0.77248979    -0.39900
O2933       O  0.81467426  0.63358158  0.64187491    -0.40600
O2934       O  0.76942804  0.60341106  0.62568071    -0.40700
C2935       C  0.77103299  0.58259230  0.98502179    -0.12900
C2936       C  0.76638467  0.59970063  0.95553188     0.04100
C2937       C  0.77960524  0.58206835  0.92908741    -0.08200
C2938       C  0.79577576  0.54791733  0.93309561    -0.09000
C2939       C  0.79996353  0.53099631  0.96262259    -0.03500
C2940       C  0.78695089  0.54872731  0.98878474     0.03300
N2941       N  0.77327364  0.52279971  0.51568883     0.65800
H2942       H  0.76062216  0.59461903  0.00580021     0.14700
H2943       H  0.80637917  0.53512474  0.91283846     0.14400
N2944       N  0.77791159  0.59827453  0.89825121     0.73500
O2945       O  0.78602591  0.53355451  0.54068230    -0.39900
O2946       O  0.74583307  0.50277367  0.51715753    -0.39900
O2947       O  0.78493573  0.63168071  0.89362406    -0.40600
O2948       O  0.77628003  0.57821518  0.87513862    -0.40700
C2949       C  0.86135330  0.60823990  0.75613490    -0.12900
C2950       C  0.88045740  0.59944443  0.72943988     0.04100
C2951       C  0.87592732  0.62088636  0.70194405    -0.08200
C2952       C  0.85356409  0.65130508  0.70210290    -0.09000
C2953       C  0.83510561  0.66080441  0.72926288    -0.03500
C2954       C  0.83894985  0.63824623  0.75645630     0.03300
N2955       N  0.82174632  0.64576302  0.78526502     0.65800
H2956       H  0.86403236  0.59177506  0.77737682     0.14700
H2957       H  0.85235338  0.66875011  0.68130985     0.14400
N2958       N  0.89447458  0.61260468  0.67393589     0.73500
O2959       O  0.79394488  0.62796630  0.79290887    -0.39900
O2960       O  0.84052463  0.65817213  0.80654459    -0.39900
O2961       O  0.88365770  0.58666484  0.65808421    -0.40600
O2962       O  0.92564697  0.62490084  0.66940324    -0.40700
C2963       C  0.85945215  0.60443395  0.98622770    -0.12900
C2964       C  0.87109833  0.59718465  0.95606094     0.04100
C2965       C  0.86301910  0.62180699  0.93147574    -0.08200
C2966       C  0.84355122  0.65306236  0.93758413    -0.09000
C2967       C  0.83319895  0.66132637  0.96808069    -0.03500
C2968       C  0.84165189  0.63639337  0.99267534     0.03300
N2969       N  0.83528478  0.64390801  0.02456875     0.65800
H2970       H  0.86538445  0.58563169  0.00544804     0.14700
H2971       H  0.83912366  0.67236629  0.91841036     0.14400
N2972       N  0.87805746  0.61821242  0.90112816     0.73500
O2973       O  0.86040037  0.65744840  0.03961347    -0.39900
O2974       O  0.81118729  0.62624379  0.03936324    -0.39900
O2975       O  0.85843932  0.60764628  0.87967920    -0.40600
O2976       O  0.90619946  0.63574327  0.89400466    -0.40700
C2977       C  0.42213547  0.81749096  0.70998021    -0.12900
C2978       C  0.42962555  0.83127781  0.67982828     0.04100
C2979       C  0.40579022  0.82225686  0.65604912    -0.08200
C2980       C  0.37440804  0.80263220  0.66344462    -0.09000
C2981       C  0.36622161  0.79005877  0.69393505    -0.03500
C2982       C  0.39125258  0.79744806  0.71729414     0.03300
N2983       N  0.38689090  0.78464346  0.74875820     0.65800
H2984       H  0.43973961  0.82347268  0.72886427     0.14700
H2985       H  0.35638330  0.79709036  0.64487489     0.14400
N2986       N  0.41321884  0.83135512  0.62409274     0.73500
O2987       O  0.40462920  0.75719931  0.75739391    -0.39900
O2988       O  0.37920630  0.80758248  0.76877535    -0.39900
O2989       O  0.42578537  0.80693618  0.60735833    -0.40600
O2990       O  0.39641999  0.85722121  0.61114256    -0.40700
C2991       C  0.33266689  0.86651530  0.72902559    -0.12900
C2992       C  0.33824530  0.87964776  0.69827761     0.04100
C2993       C  0.31566288  0.86818265  0.67491532    -0.08200
C2994       C  0.28688991  0.84571449  0.68304738    -0.09000
C2995       C  0.27790822  0.83765192  0.71446251    -0.03500
C2996       C  0.30208998  0.84705959  0.73763047     0.03300
N2997       N  0.29467701  0.84078926  0.77004878     0.65800
H2998       H  0.35067724  0.87406472  0.74714598     0.14700
H2999       H  0.26896446  0.83891705  0.66463482     0.14400
N3000       N  0.31772930  0.88334262  0.64394046     0.73500
O3001       O  0.30835080  0.81356018  0.78388644    -0.39900
O3002       O  0.28495830  0.86729070  0.78586114    -0.39900
O3003       O  0.32344854  0.86225380  0.62202925    -0.40600
O3004       O  0.30189768  0.91297310  0.63806281    -0.40700
C3005       C  0.35412692  0.83320162  0.89671621    -0.12900
C3006       C  0.38297802  0.83573198  0.91671277     0.04100
C3007       C  0.38041695  0.81775650  0.94630195    -0.08200
C3008       C  0.35008876  0.79788515  0.95484059    -0.09000
C3009       C  0.32238848  0.79245894  0.93410280    -0.03500
C3010       C  0.32444245  0.81113075  0.90458838     0.03300
N3011       N  0.29690304  0.80924227  0.88225994     0.65800
H3012       H  0.35471494  0.84819063  0.87454934     0.14700
H3013       H  0.34990312  0.78422378  0.97754116     0.14400
N3014       N  0.40822861  0.81880135  0.96848506     0.73500
O3015       O  0.27254458  0.83265088  0.88325030    -0.39900
O3016       O  0.30490151  0.79687734  0.85619091    -0.39900
O3017       O  0.40341558  0.83730110  0.99221488    -0.40600
O3018       O  0.42926058  0.79216252  0.97028811    -0.40700
C3019       C  0.33218053  0.86776256  0.48466313    -0.12900
C3020       C  0.32110515  0.90239064  0.96825733     0.04100
C3021       C  0.29439322  0.90002625  0.94582076    -0.08200
C3022       C  0.26917571  0.87250680  0.94871275    -0.09000
C3023       C  0.26837602  0.84751203  0.97420012    -0.03500
C3024       C  0.30143148  0.84710354  0.49003045     0.03300
N3025       N  0.29792480  0.82694242  0.51891301     0.65800
H3026       H  0.35311231  0.86578460  0.50169599     0.14700
H3027       H  0.24938558  0.87154351  0.93070594     0.14400
N3028       N  0.29146287  0.92558251  0.92018095     0.73500
O3029       O  0.31781711  0.79980006  0.52361855    -0.39900
O3030       O  0.28623298  0.84333154  0.54211573    -0.39900
O3031       O  0.30241006  0.91630523  0.89383975    -0.40600
O3032       O  0.26758942  0.94956514  0.92148594    -0.40700
C3033       C  0.55962356  0.16824828  0.68864192    -0.12900
C3034       C  0.57069750  0.17727408  0.71835882     0.04100
C3035       C  0.54805374  0.16712057  0.74408808    -0.08200
C3036       C  0.51637847  0.14806690  0.73941085    -0.09000
C3037       C  0.50580660  0.13869410  0.70977862    -0.03500
C3038       C  0.52726303  0.15034974  0.68403127     0.03300
N3039       N  0.51676746  0.14486181  0.65286443     0.65800
H3040       H  0.57561168  0.17623122  0.66837413     0.14700
H3041       H  0.50001649  0.14014762  0.75950287     0.14400
N3042       N  0.55564580  0.17609655  0.77526224     0.73500
O3043       O  0.50458865  0.17153439  0.63712162    -0.39900
O3044       O  0.52964252  0.11839410  0.63883148    -0.39900
O3045       O  0.53934675  0.20262801  0.78636105    -0.40600
O3046       O  0.56527235  0.15076485  0.79381841    -0.40700
C3047       C  0.57527769  0.10483853  0.00608342    -0.12900
C3048       C  0.53868611  0.10766691  0.99994235     0.04100
C3049       C  0.52462009  0.14230254  0.99186899    -0.08200
C3050       C  0.54771702  0.17058517  0.98355902    -0.09000
C3051       C  0.58457983  0.16636079  0.98548697    -0.03500
C3052       C  0.59824524  0.13433409  0.99958968     0.03300
N3053       N  0.63468989  0.13257803  0.50216866     0.65800
H3054       H  0.58960440  0.07857102  0.51173871     0.14700
H3055       H  0.53645017  0.19615714  0.97522856     0.14400
N3056       N  0.48720916  0.14912633  0.99026032     0.73500
O3057       O  0.64572276  0.13520540  0.52950179    -0.39900
O3058       O  0.65345628  0.10951233  0.99048485    -0.39900
O3059       O  0.47250198  0.16484631  0.01255190    -0.40600
O3060       O  0.47301372  0.15176813  0.96389944    -0.40700
C3061       C  0.64954915  0.12245690  0.68303131    -0.12900
C3062       C  0.65973303  0.12993725  0.71338835     0.04100
C3063       C  0.63896352  0.11518025  0.73851984    -0.08200
C3064       C  0.60981922  0.09310904  0.73276060    -0.09000
C3065       C  0.60099149  0.08380890  0.70255581    -0.03500
C3066       C  0.62139901  0.09889492  0.67736427     0.03300
N3067       N  0.61532876  0.09006411  0.64589084     0.65800
H3068       H  0.66497520  0.13298185  0.66318356     0.14700
H3069       H  0.59462938  0.08228766  0.75262597     0.14400
N3070       N  0.64755395  0.12035313  0.77020879     0.73500
O3071       O  0.60248319  0.11431245  0.62787588    -0.39900
O3072       O  0.63435564  0.06568877  0.63430081    -0.39900
O3073       O  0.63758451  0.14917927  0.78259329    -0.40600
O3074       O  0.65386163  0.09266796  0.78747904    -0.40700
C3075       C  0.64315412  0.10948471  0.91403680    -0.12900
C3076       C  0.67562444  0.09055353  0.91518328     0.04100
C3077       C  0.67549675  0.05250355  0.91106300    -0.08200
C3078       C  0.64359662  0.03328252  0.91247966    -0.09000
C3079       C  0.61162625  0.05155399  0.91556362    -0.03500
C3080       C  0.61093920  0.08983259  0.91294562     0.03300
N3081       N  0.57774232  0.10843382  0.91020441     0.65800
H3082       H  0.64263207  0.13872397  0.91650310     0.14700
H3083       H  0.64388896  0.00378565  0.91215970     0.14400
N3084       N  0.70775027  0.03235593  0.90825593     0.73500
O3085       O  0.56250786  0.10490549  0.43406800    -0.39900
O3086       O  0.56487649  0.11353054  0.88351067    -0.39900
O3087       O  0.71675801  0.01130006  0.93055465    -0.40600
O3088       O  0.71903153  0.02584056  0.88133729    -0.40700
loop_ 
_geom_bond_atom_site_label_1 
_geom_bond_atom_site_label_2 
_geom_bond_distance 
_geom_bond_site_symmetry_2 
_ccdc_geom_bond_type 
Zr1           O2   2.437       .  S
Zr1           O3   2.434       .  S
Zr1           O4   2.501       .  S
Zr1           O7   2.502       .  S
Zr1           O9   2.382       .  S
Zr1          O11   2.419       .  S
Zr1          O12   2.425       .  S
Zr1        O1554   2.406       .  S
O2           H58   0.990       .  S
O2           H66   0.990       .  S
O3           C23   1.282       .  A
O4           C25   1.299       .  A
O5          Zr15   2.500   1_556  S
O5           C24   1.297       .  A
O6          Zr14   2.409       .  S
O6           C25   1.278       .  A
O7         C1568   1.298       .  A
O8        Zr1560   2.395       .  S
O8           C23   1.278       .  A
O9          Zr14   2.369       .  S
O9        Zr1560   2.381       .  S
O10         Zr15   2.389   1_556  S
O10         Zr16   2.357       .  S
O10       Zr1545   2.407       .  S
O10          H45   0.966       .  S
O11         Zr14   2.391       .  S
O11         Zr31   2.407       .  S
O11          H48   0.966       .  S
O12         Zr31   2.414       .  S
O12       Zr1559   2.389       .  S
Zr13         O38   2.438       .  S
Zr13         O32   2.496       .  S
Zr13         O40   2.514       .  S
Zr13         O28   2.573       .  S
Zr13         O19   2.439       .  S
Zr13         O20   2.420   1_554  S
Zr13         O22   2.429       .  S
Zr13       O1565   2.388   1_554  S
Zr14         O33   2.437       .  S
Zr14         O26   2.432       .  S
Zr14         O27   2.392       .  S
Zr14         O21   2.386       .  S
Zr14       O1564   2.402       .  S
Zr15         O17   2.435       .  S
Zr15         O39   2.440       .  S
Zr15         O41   2.410       .  S
Zr15         O19   2.417       .  S
Zr15         O22   2.426       .  S
Zr15       O1556   2.378   1_554  S
Zr16         O42   2.435   1_556  S
Zr16         O43   2.442   1_556  S
Zr16       O1562   2.443   1_556  S
Zr16       O1552   2.400       .  S
Zr16         O19   2.368   1_556  S
Zr16         O20   2.360       .  S
Zr16       O1553   2.387       .  S
O17          H54   0.990       .  S
O18       Zr1560   2.443       .  S
O18          H63   0.990       .  S
O18        H1593   0.989       .  S
O20       Zr1558   2.400       .  S
O20          H46   0.960       .  S
O21         Zr31   2.378       .  S
O21       Zr1557   2.391       .  S
O22       Zr1575   2.368   1_554  S
O22          H47   0.967       .  S
C23        C1532   1.459       .  S
C24        O1551   1.297       .  A
C24        C1699   1.522       .  S
C25          C91   1.490       .  S
O26          H62   0.989       .  S
O27          C29   1.274   1_545  A
O28        C1573   1.313   1_544  A
C29        O1572   1.310   1_565  A
C29         C704   1.503       .  S
O30         Zr31   2.438       .  S
O30          H59   0.990       .  S
Zr31         O34   2.436       .  S
Zr31       O1579   2.441       .  S
Zr31       O1580   2.442       .  S
Zr31       O1566   2.364       .  S
O32          C37   1.291       .  A
O33          H50   0.990       .  S
O33          H65   0.991       .  S
O34          H51   0.989       .  S
O35       Zr1575   2.442       .  S
O35          H64   0.990   1_556  S
O35        H1599   0.990       .  S
O36       Zr1575   2.442       .  S
O36          C37   1.288   1_556  A
C37         C961   1.504       .  S
O38          H57   0.990       .  S
O38          H61   0.990       .  S
O39          H53   0.990       .  S
O39          H60   0.990       .  S
O40          C44   1.302       .  A
O41          C44   1.281       .  A
O42          H52   0.990       .  S
O43          H56   0.990       .  S
C44         C110   1.490       .  S
H49        O1562   0.988       .  S
H55        O1579   0.989       .  S
Zr67         O68   2.444       .  S
Zr67         O69   2.579       .  S
Zr67         O70   2.497       .  S
Zr67         O73   2.460       .  S
Zr67         O75   2.372       .  S
Zr67         O76   2.384       .  S
Zr67         O77   2.434       .  S
Zr67         O78   2.367       .  S
O68         H124   0.991       .  S
O68         H132   0.991       .  S
O69          C89   1.311   1_545  A
O70          C91   1.295       .  A
O71         Zr81   2.484       .  S
O71          C90   1.296       .  A
O72         Zr80   2.458       .  S
O72          C91   1.284       .  A
O73          C90   1.281       .  A
O74         Zr82   2.334       .  S
O74          C89   1.258   1_545  A
O75         Zr80   2.408       .  S
O75         Zr82   2.408       .  S
O76         Zr81   2.388       .  S
O76         Zr82   2.405       .  S
O76         H111   0.966       .  S
O77         Zr80   2.407       .  S
O77         Zr97   2.379       .  S
O77         H114   0.952       .  S
O78         Zr81   2.288       .  S
O78         Zr97   2.362       .  S
Zr79        O104   2.441       .  S
Zr79         O98   2.464       .  S
Zr79        O106   2.493       .  S
Zr79         O94   2.426       .  S
Zr79         O85   2.374       .  S
Zr79         O86   2.440       .  S
Zr79         O87   2.388       .  S
Zr79         O88   2.400       .  S
Zr80         O99   2.446       .  S
Zr80         O92   2.433       .  S
Zr80         O93   2.437       .  S
Zr80         O86   2.422       .  S
Zr80         O87   2.401       .  S
Zr81         O83   2.437       .  S
Zr81        O105   2.436       .  S
Zr81        O107   2.476       .  S
Zr81         O85   2.367       .  S
Zr81         O88   2.424       .  S
Zr82        O108   2.436       .  S
Zr82        O109   2.440       .  S
Zr82         O84   2.440       .  S
Zr82         O85   2.343       .  S
Zr82         O86   2.364       .  S
O83         H120   0.991       .  S
O84         H115   0.990       .  S
O84         H129   0.990   1_545  S
O86         H112   0.965       .  S
O87         Zr97   2.347       .  S
O88         Zr97   2.373       .  S
O88         H113   0.966       .  S
C89         C770   1.497       .  S
C90        C1027   1.509       .  S
O92         H128   0.990       .  S
O93          C95   1.279       .  A
O94          C95   1.286       .  A
C95        C1518   1.484       .  S
O96         Zr97   2.439       .  S
O96         H125   0.990       .  S
Zr97        O100   2.439       .  S
Zr97        O101   2.434       .  S
Zr97        O102   2.521       .  S
O98         C103   1.286       .  A
O99         H116   0.991       .  S
O99         H131   0.990       .  S
O100        H117   0.990       .  S
O101        H121   0.990       .  S
O101        H130   0.990       .  S
O102        C103   1.297       .  A
C103        C221   1.524       .  S
O104        H123   0.991       .  S
O104        H127   0.990       .  S
O105        H119   0.990       .  S
O105        H126   0.990       .  S
O106        C110   1.298       .  A
O107        C110   1.291       .  A
O108        H118   0.990       .  S
O109        H122   0.990       .  S
Zr133      O1678   2.443       .  S
Zr133       O135   2.478       .  S
Zr133       O136   2.419       .  S
Zr133      O1683   2.473       .  S
Zr133       O141   2.384       .  S
Zr133       O142   2.397       .  S
Zr133       O143   2.423       .  S
Zr133       O144   2.386       .  S
O134      Zr1677   2.442       .  S
O134        H190   0.991       .  S
O134        H198   0.990       .  S
O135        C155   1.289       .  A
O136        C157   1.280       .  A
O137      Zr1691   2.490   1_554  S
O137        C156   1.296       .  A
O138       Zr146   2.453       .  S
O138        C157   1.291       .  A
O139      Zr1677   2.469       .  S
O139        C156   1.293       .  A
O140       Zr148   2.510       .  S
O140        C155   1.295       .  A
O141       Zr146   2.399       .  S
O141       Zr148   2.358       .  S
O142       Zr147   2.417       .  S
O142       Zr148   2.378       .  S
O142        H177   0.965       .  S
O143       Zr146   2.408       .  S
O143       Zr163   2.359       .  S
O143        H180   0.960       .  S
O144       Zr147   2.359       .  S
O144       Zr163   2.353       .  S
Zr145       O170   2.445       .  S
Zr145       O164   2.585       .  S
Zr145       O172   2.461       .  S
Zr145       O160   2.485       .  S
Zr145       O152   2.440       .  S
Zr145       O153   2.377       .  S
Zr145       O154   2.383       .  S
Zr145       O151   2.368       .  S
Zr146       O165   2.436       .  S
Zr146       O158   2.435       .  S
Zr146       O159   2.461       .  S
Zr146       O152   2.407       .  S
Zr146       O153   2.415       .  S
Zr147      O1693   2.436       .  S
Zr147      O1715   2.437       .  S
Zr147       O173   2.466       .  S
Zr147      O1681   2.485       .  S
Zr147       O154   2.381       .  S
Zr147       O151   2.291       .  S
Zr148       O174   2.438       .  S
Zr148       O175   2.437       .  S
Zr148       O150   2.441       .  S
Zr148       O152   2.383       .  S
Zr148       O151   2.359       .  S
O149      Zr1691   2.438   1_554  S
O149        H186   0.990       .  S
O150        H181   0.990       .  S
O150        H195   0.990       .  S
O152        H178   0.960       .  S
O153       Zr163   2.400       .  S
O154       Zr163   2.399       .  S
O154        H179   0.966       .  S
C155       C1568   1.526       .  S
C156        C227   1.488       .  S
C157       C1507   1.455       .  S
O158        H194   0.990       .  S
O159        C161   1.291       .  A
O160        C161   1.293       .  A
C161        C222   1.489       .  S
O162      Zr1707   2.441   1_554  S
O162       H1735   0.989       .  S
Zr163       O166   2.439       .  S
Zr163       O167   2.437       .  S
Zr163      O1706   2.439       .  S
Zr163       O168   2.342       .  S
O164        C169   1.308       .  A
O165        H182   0.990       .  S
O165        H197   0.990       .  S
O166        H183   0.990       .  S
O167        H187   0.990       .  S
O167        H196   0.990       .  S
O168        C169   1.259       .  A
C169       C1100   1.507       .  S
O170        H189   0.990       .  S
O170        H193   0.991       .  S
O171      Zr1691   2.440   1_554  S
O171        H185   0.990   1_554  S
O171        H192   0.990       .  S
O172        C176   1.282       .  A
O173        C176   1.294       .  A
O174        H184   0.990       .  S
O175        H188   0.990       .  S
C176        C815   1.504       .  S
H191       O1706   0.991       .  S
Zr199       O200   2.439       .  S
Zr199       O201   2.493       .  S
Zr199       O202   2.403       .  S
Zr199       O205   2.480       .  S
Zr199       O207   2.396       .  S
Zr199       O208   2.395       .  S
Zr199       O209   2.451       .  S
Zr199       O210   2.376       .  S
O200        H256   0.991       .  S
O200        H264   0.990       .  S
O201        C221   1.291       .  A
O202        C223   1.275       .  A
O203       Zr213   2.484       .  S
O203        C222   1.296       .  A
O204       Zr212   2.452       .  S
O204        C223   1.285       .  A
O205        C222   1.295       .  A
O206       Zr214   2.493       .  S
O206        C221   1.292       .  A
O207       Zr212   2.408       .  S
O207       Zr214   2.365       .  S
O208       Zr213   2.415       .  S
O208       Zr214   2.373       .  S
O208        H243   0.965       .  S
O209       Zr212   2.404       .  S
O209       Zr229   2.371       .  S
O209        H246   0.962       .  S
O210       Zr213   2.354       .  S
O210       Zr229   2.348       .  S
Zr211       O236   2.445       .  S
Zr211       O230   2.586       .  S
Zr211       O238   2.452       .  S
Zr211       O226   2.490       .  S
Zr211       O218   2.441       .  S
Zr211       O219   2.377       .  S
Zr211       O220   2.381       .  S
Zr211       O217   2.368       .  S
Zr212       O231   2.435       .  S
Zr212       O224   2.436       .  S
Zr212       O225   2.456       .  S
Zr212       O218   2.409       .  S
Zr212       O219   2.409       .  S
Zr213       O215   2.435       .  S
Zr213       O237   2.438       .  S
Zr213       O239   2.471       .  S
Zr213       O220   2.388       .  S
Zr213       O217   2.287       .  S
Zr214       O240   2.439       .  S
Zr214       O241   2.436       .  S
Zr214       O216   2.441       .  S
Zr214       O218   2.386       .  S
Zr214       O217   2.354       .  S
O215        H252   0.989       .  S
O216        H247   0.991       .  S
O216        H261   0.990       .  S
O218        H244   0.960       .  S
O219       Zr229   2.400       .  S
O220       Zr229   2.398       .  S
O220        H245   0.966       .  S
C223       C1490   1.477       .  S
O224        H260   0.990       .  S
O225        C227   1.290       .  A
O226        C227   1.293       .  A
O228       Zr229   2.433       .  S
O228        H257   0.990       .  S
Zr229       O232   2.439       .  S
Zr229       O233   2.438       .  S
Zr229       O234   2.345       .  S
O230        C235   1.309       .  A
O231        H248   0.990       .  S
O231        H263   0.989       .  S
O232        H249   0.990       .  S
O233        H253   0.990       .  S
O233        H262   0.990       .  S
O234        C235   1.261       .  A
C235       C1146   1.510       .  S
O236        H255   0.991       .  S
O236        H259   0.991       .  S
O237        H251   0.988       .  S
O237        H258   0.990       .  S
O238        C242   1.280       .  A
O239        C242   1.296       .  A
O240        H250   0.991       .  S
O241        H254   0.990       .  S
C242        C895   1.503       .  S
Zr265       O266   2.439       .  S
Zr265       O267   2.431       .  S
Zr265       O268   2.459       .  S
Zr265       O271   2.420       .  S
Zr265       O273   2.384       .  S
Zr265       O274   2.391       .  S
Zr265       O275   2.395       .  S
Zr265       O276   2.413       .  S
O266        H322   0.990       .  S
O266        H330   0.990       .  S
O267        C287   1.282       .  A
O268        C289   1.290       .  A
O269      Zr1823   2.399       .  S
O269        C288   1.281       .  A
O270       Zr278   2.377       .  S
O270        C289   1.271       .  A
O271        C288   1.283       .  A
O272       Zr280   2.433       .  S
O272        C287   1.283       .  A
O273       Zr278   2.381       .  S
O273       Zr280   2.385       .  S
O274       Zr280   2.374       .  S
O274      Zr1823   2.351       .  S
O274        H309   0.961       .  S
O275       Zr278   2.406       .  S
O275       Zr295   2.406   1_565  S
O275        H312   0.965   1_565  S
O276       Zr295   2.380   1_565  S
O276      Zr1823   2.388       .  S
Zr277       O302   2.439       .  S
Zr277       O296   2.415   1_565  S
Zr277       O304   2.442   1_556  S
Zr277      O1836   2.448   1_565  S
Zr277       O283   2.395       .  S
Zr277      O1828   2.405       .  S
Zr277      O1829   2.372   1_565  S
Zr277      O1830   2.389   1_565  S
Zr278       O297   2.447       .  S
Zr278       O290   2.441       .  S
Zr278       O291   2.381   1_565  S
Zr278       O284   2.393       .  S
Zr278       O285   2.368   1_565  S
Zr279       O281   2.433   1_556  S
Zr279       O303   2.438   1_556  S
Zr279       O305   2.402   1_556  S
Zr279      O1813   2.421       .  S
Zr279       O283   2.400       .  S
Zr279      O1818   2.354       .  S
Zr279      O1820   2.388       .  S
Zr279      O1830   2.362   1_565  S
Zr280       O282   2.439       .  S
Zr280      O1850   2.432       .  S
Zr280      O1851   2.435       .  S
Zr280       O284   2.406       .  S
Zr280      O1827   2.408       .  S
O281        H318   0.990       .  S
O282        H313   0.991       .  S
O282        H327   0.990       .  S
O283      Zr1824   2.402       .  S
O284      Zr1821   2.411       .  S
O284        H310   0.965       .  S
O285       Zr295   2.343       .  S
O285      Zr1821   2.362   1_545  S
O286       Zr295   2.375   1_565  S
O286      Zr1821   2.386       .  S
O286      Zr1823   2.354       .  S
O286       H1855   0.965   1_565  S
C287       C1462   1.487       .  S
C288       C1476   1.461       .  S
C289        C374   1.459       .  S
O290        H326   0.991       .  S
O291        C293   1.268       .  A
O292      Zr1821   2.458   1_545  S
O292        C293   1.288       .  A
C293       C1535   1.440       .  S
O294       Zr295   2.435       .  S
O294        H323   0.990       .  S
Zr295       O298   2.435       .  S
Zr295       O299   2.437       .  S
Zr295       O300   2.429       .  S
O296       C1845   1.283       .  A
O297        H314   0.990       .  S
O297        H329   0.991   1_565  S
O298        H315   0.990       .  S
O299        H319   0.990       .  S
O299        H328   0.989       .  S
O300        C301   1.285       .  A
C301       O1840   1.282       .  A
C301       C1504   1.473       .  S
O302        H321   0.990       .  S
O302        H325   0.990   1_556  S
O303        H317   0.990       .  S
O303        H324   0.988       .  S
O304        C308   1.287       .  A
O305        C308   1.278       .  A
O306      Zr1824   2.433       .  S
O306        H316   0.990       .  S
O307      Zr1824   2.437       .  S
O307        H320   0.990       .  S
C308        C355   1.464       .  S
H311       O1830   0.966   1_554  S
Zr331       O332   2.432       .  S
Zr331       O333   2.421       .  S
Zr331       O334   2.432       .  S
Zr331       O337   2.438       .  S
Zr331       O339   2.389       .  S
Zr331       O340   2.383       .  S
Zr331       O341   2.402       .  S
Zr331       O342   2.403       .  S
O332        H388   0.987       .  S
O332        H396   0.990       .  S
O333        C353   1.276       .  A
O334        C355   1.287       .  A
O335       Zr345   2.390       .  S
O335        C354   1.278       .  A
O336       Zr344   2.428       .  S
O336        C355   1.282       .  A
O337        C354   1.285       .  A
O338       Zr346   2.424       .  S
O338        C353   1.282       .  A
O339       Zr344   2.391       .  S
O339       Zr346   2.383       .  S
O340       Zr345   2.364       .  S
O340       Zr346   2.384       .  S
O340        H375   0.962       .  S
O341       Zr344   2.416       .  S
O341       Zr361   2.379   1_565  S
O341        H378   0.964       .  S
O342       Zr345   2.379       .  S
O342       Zr361   2.394   1_565  S
Zr343       O368   2.443       .  S
Zr343       O362   2.430   1_565  S
Zr343       O370   2.449       .  S
Zr343       O358   2.413       .  S
Zr343       O349   2.375       .  S
Zr343       O350   2.427       .  S
Zr343       O351   2.379   1_565  S
Zr343       O352   2.376   1_565  S
Zr344       O363   2.441       .  S
Zr344       O356   2.436       .  S
Zr344       O357   2.434   1_565  S
Zr344       O350   2.410       .  S
Zr344       O351   2.384   1_565  S
Zr345       O347   2.434       .  S
Zr345       O369   2.440       .  S
Zr345       O371   2.383       .  S
Zr345       O349   2.395       .  S
Zr345       O352   2.373   1_565  S
Zr346       O372   2.435       .  S
Zr346       O373   2.438       .  S
Zr346       O348   2.440       .  S
Zr346       O349   2.404       .  S
Zr346       O350   2.396       .  S
O347        H384   0.990       .  S
O348        H379   0.990       .  S
O348        H393   0.990       .  S
O350        H376   0.966       .  S
O351       Zr361   2.360       .  S
O352       Zr361   2.385       .  S
O352        H377   0.966       .  S
C353       C1434   1.484       .  S
C354       C1448   1.470       .  S
O356        H392   0.990       .  S
O357        C359   1.279       .  A
O358        C359   1.277   1_565  A
C359       C1521   1.470       .  S
O360       Zr361   2.438       .  S
O360        H389   0.990       .  S
Zr361       O364   2.434       .  S
Zr361       O365   2.437       .  S
Zr361       O366   2.399       .  S
O362        C367   1.284       .  A
O363        H380   0.991   1_565  S
O363        H395   0.990       .  S
O364        H381   0.991       .  S
O365        H385   0.991       .  S
O365        H394   0.990       .  S
O366        C367   1.275       .  A
C367       C1493   1.463       .  S
O368        H387   0.989       .  S
O368        H391   0.990   1_565  S
O369        H383   0.990       .  S
O369        H390   0.990       .  S
O370        C374   1.290       .  A
O371        C374   1.272       .  A
O372        H382   0.990       .  S
O373        H386   0.990       .  S
Zr397       O398   2.447       .  S
Zr397       O399   2.588       .  S
Zr397       O400   2.488       .  S
Zr397       O403   2.448       .  S
Zr397       O405   2.381       .  S
Zr397       O406   2.380       .  S
Zr397       O407   2.448       .  S
Zr397       O408   2.367       .  S
O398        H454   0.991       .  S
O398        H462   0.991       .  S
O399        C419   1.310       .  A
O400        C421   1.291       .  A
O401       Zr411   2.487       .  S
O401        C420   1.299       .  A
O402       Zr410   2.439       .  S
O402        C421   1.283       .  A
O403        C420   1.279       .  A
O404       Zr412   2.319       .  S
O404        C419   1.256       .  A
O405       Zr410   2.410       .  S
O405       Zr412   2.402       .  S
O406       Zr411   2.377       .  S
O406       Zr412   2.414       .  S
O406        H441   0.966       .  S
O407       Zr410   2.398       .  S
O407       Zr427   2.395       .  S
O407        H444   0.959       .  S
O408       Zr411   2.287       .  S
O408       Zr427   2.353       .  S
Zr409       O434   2.441       .  S
Zr409       O428   2.461       .  S
Zr409       O424   2.458       .  S
Zr409      O1980   2.514       .  S
Zr409       O415   2.361       .  S
Zr409       O416   2.440       .  S
Zr409       O417   2.400       .  S
Zr409       O418   2.413       .  S
Zr410       O429   2.441       .  S
Zr410       O422   2.435       .  S
Zr410       O423   2.416       .  S
Zr410       O416   2.417       .  S
Zr410       O417   2.409       .  S
Zr411       O413   2.437       .  S
Zr411       O435   2.438       .  S
Zr411      O1981   2.485       .  S
Zr411       O415   2.352       .  S
Zr411       O418   2.422       .  S
Zr412       O438   2.436       .  S
Zr412       O439   2.436       .  S
Zr412       O414   2.435       .  S
Zr412       O415   2.333       .  S
Zr412       O416   2.362       .  S
O413        H450   0.991       .  S
O414        H445   0.990       .  S
O414        H459   0.990       .  S
O416        H442   0.957       .  S
O417       Zr427   2.355       .  S
O418       Zr427   2.374       .  S
O418        H443   0.966       .  S
C419        C816   1.496       .  S
C420       C1093   1.506       .  S
C421        C506   1.483       .  S
O422        H458   0.990       .  S
O423        C425   1.271       .  A
O424        C425   1.287       .  A
C425       C1465   1.492       .  S
O426       Zr427   2.438       .  S
O426        H455   0.990       .  S
Zr427       O430   2.436       .  S
Zr427       O431   2.440       .  S
Zr427       O432   2.507       .  S
O428        C433   1.284       .  A
O429        H446   0.990       .  S
O429        H461   0.991       .  S
O430        H447   0.990       .  S
O431        H451   0.990       .  S
O431        H460   0.990       .  S
O432        C433   1.295       .  A
C433        C551   1.518       .  S
O434        H453   0.989       .  S
O434        H457   0.990       .  S
O435        H456   0.990       .  S
O435       H1993   0.990       .  S
O436      Zr1953   2.511   1_554  S
O436        C440   1.302       .  A
O437      Zr1955   2.451   1_554  S
O437        C440   1.289       .  A
O438        H448   0.990       .  S
O439        H452   0.991       .  S
C440        C487   1.491       .  S
H449       O1979   0.990       .  S
Zr463       O464   2.446       .  S
Zr463       O465   2.582       .  S
Zr463       O466   2.498       .  S
Zr463       O469   2.448       .  S
Zr463       O471   2.373       .  S
Zr463       O472   2.382       .  S
Zr463       O473   2.435       .  S
Zr463       O474   2.369       .  S
O464        H520   0.991       .  S
O464        H528   0.991       .  S
O465        C485   1.309       .  A
O466        C487   1.295       .  A
O467       Zr477   2.478       .  S
O467        C486   1.297       .  A
O468       Zr476   2.458       .  S
O468        C487   1.286       .  A
O469        C486   1.279       .  A
O470       Zr478   2.322       .  S
O470        C485   1.253       .  A
O471       Zr476   2.410       .  S
O471       Zr478   2.410       .  S
O472       Zr477   2.378       .  S
O472       Zr478   2.406       .  S
O472        H507   0.966       .  S
O473       Zr476   2.404       .  S
O473       Zr493   2.382       .  S
O473        H510   0.960       .  S
O474       Zr477   2.285       .  S
O474       Zr493   2.350       .  S
Zr475       O500   2.441       .  S
Zr475       O494   2.478       .  S
Zr475       O502   2.478       .  S
Zr475       O490   2.449       .  S
Zr475       O481   2.375       .  S
Zr475       O482   2.445       .  S
Zr475       O483   2.398       .  S
Zr475       O484   2.409       .  S
Zr476       O495   2.443       .  S
Zr476       O488   2.433       .  S
Zr476       O489   2.439       .  S
Zr476       O482   2.415       .  S
Zr476       O483   2.415       .  S
Zr477       O479   2.436       .  S
Zr477       O501   2.439       .  S
Zr477       O503   2.473       .  S
Zr477       O481   2.368       .  S
Zr477       O484   2.416       .  S
Zr478       O504   2.436       .  S
Zr478       O505   2.438       .  S
Zr478       O480   2.446       .  S
Zr478       O481   2.340       .  S
Zr478       O482   2.364       .  S
O479        H516   0.990       .  S
O480        H511   0.989       .  S
O480        H525   0.990       .  S
O482        H508   0.963       .  S
O483       Zr493   2.370       .  S
O484       Zr493   2.372       .  S
O484        H509   0.966       .  S
C485        C902   1.493       .  S
C486       C1145   1.502       .  S
O488        H524   0.990       .  S
O489        C491   1.278       .  A
O490        C491   1.278       .  A
C491       C1437   1.492       .  S
O492       Zr493   2.439       .  S
O492        H521   0.990       .  S
Zr493       O496   2.437       .  S
Zr493       O497   2.447       .  S
Zr493       O498   2.490       .  S
O494        C499   1.288       .  A
O495        H512   0.990       .  S
O495        H527   0.990       .  S
O496        H513   0.991       .  S
O497        H517   0.989       .  S
O497        H526   0.990       .  S
O498        C499   1.292       .  A
C499        C617   1.518       .  S
O500        H519   0.990       .  S
O500        H523   0.990       .  S
O501        H515   0.990       .  S
O501        H522   0.990       .  S
O502        C506   1.295       .  A
O503        C506   1.292       .  A
O504        H514   0.990       .  S
O505        H518   0.991       .  S
Zr529       O530   2.443       .  S
Zr529       O531   2.458       .  S
Zr529       O532   2.423       .  S
Zr529       O535   2.451       .  S
Zr529       O537   2.379       .  S
Zr529       O538   2.399       .  S
Zr529       O539   2.429       .  S
Zr529       O540   2.384       .  S
O530        H586   0.991       .  S
O530        H594   0.990       .  S
O531        C551   1.282       .  A
O532        C553   1.286       .  A
O533       Zr543   2.494       .  S
O533        C552   1.298       .  A
O534       Zr542   2.423       .  S
O534       C2097   1.275   1_554  A
O535        C552   1.288       .  A
O536      Zr2088   2.516       .  S
O536        C551   1.296       .  A
O537      Zr2086   2.401       .  S
O537      Zr2088   2.353       .  S
O538       Zr543   2.415       .  S
O538      Zr2088   2.370       .  S
O538        H573   0.966       .  S
O539       Zr559   2.380       .  S
O539      Zr2086   2.407       .  S
O539        H576   0.964       .  S
O540       Zr543   2.361       .  S
O540       Zr559   2.343       .  S
Zr541       O566   2.447       .  S
Zr541       O560   2.563       .  S
Zr541       O568   2.435       .  S
Zr541       O556   2.457       .  S
Zr541       O548   2.440       .  S
Zr541       O549   2.374       .  S
Zr541      O2094   2.380   1_554  S
Zr541      O2091   2.361   1_554  S
Zr542       O561   2.437       .  S
Zr542       O554   2.434       .  S
Zr542       O555   2.442       .  S
Zr542       O548   2.406       .  S
Zr542       O549   2.402       .  S
Zr542      O2081   2.408   1_554  S
Zr542      O2083   2.409   1_554  S
Zr543       O545   2.436       .  S
Zr543       O567   2.438       .  S
Zr543       O569   2.492       .  S
Zr543       O550   2.384       .  S
Zr543       O547   2.293       .  S
Zr544       O571   2.435   1_556  S
Zr544       O546   2.438   1_556  S
Zr544      O2114   2.438       .  S
Zr544      O2080   2.510       .  S
Zr544       O548   2.391   1_556  S
Zr544      O2081   2.354       .  S
Zr544      O2082   2.369       .  S
Zr544      O2091   2.355       .  S
O545        H582   0.990       .  S
O546        H577   0.991       .  S
O546        H591   0.990       .  S
O547      Zr2085   2.371       .  S
O547      Zr2088   2.361       .  S
O548        H574   0.961       .  S
O549      Zr2103   2.401   1_554  S
O550       Zr559   2.395       .  S
O550      Zr2085   2.385       .  S
O550        H575   0.966       .  S
C552        C623   1.479       .  S
C553       O2078   1.279       .  A
C553       C1479   1.464       .  S
O554        H590   0.990       .  S
O555        C557   1.286       .  A
O556        C557   1.285       .  A
C557        C618   1.473       .  S
O558       Zr559   2.438       .  S
O558        H587   0.990       .  S
Zr559       O563   2.440       .  S
Zr559      O2106   2.434       .  S
Zr559      O2108   2.348       .  S
Zr559      O2093   2.407       .  S
O560        C565   1.305   1_554  A
O561        H578   0.990       .  S
O561        H593   0.990       .  S
O562      Zr2103   2.439       .  S
O562       H2123   0.990       .  S
O563        H583   0.990       .  S
O563        H592   0.990       .  S
O564      Zr2103   2.349       .  S
O564        C565   1.261       .  A
C565        C968   1.497   1_565  S
O566        H585   0.991       .  S
O566        H589   0.991       .  S
O567        H581   0.990       .  S
O567        H588   0.990       .  S
O568       C2116   1.276   1_454  A
O569        C572   1.300   1_455  A
O570      Zr2088   2.437       .  S
O570        H580   0.991       .  S
O571        H584   0.990       .  S
C572       O2112   1.275   1_655  A
C572       C2241   1.500       .  S
H579       O2106   0.989       .  S
Zr595       O596   2.443       .  S
Zr595       O597   2.461       .  S
Zr595       O598   2.403       .  S
Zr595       O601   2.440       .  S
Zr595       O603   2.378       .  S
Zr595       O604   2.392       .  S
Zr595       O605   2.421       .  S
Zr595       O606   2.385       .  S
O596        H652   0.990       .  S
O596        H660   0.991       .  S
O597        C617   1.284       .  A
O598        C619   1.281       .  A
O599       Zr609   2.471       .  S
O599        C618   1.292       .  A
O600       Zr608   2.435       .  S
O600        C619   1.285       .  A
O601        C618   1.286       .  A
O602       Zr610   2.512       .  S
O602        C617   1.295       .  A
O603       Zr608   2.400       .  S
O603       Zr610   2.353       .  S
O604       Zr609   2.414       .  S
O604       Zr610   2.372       .  S
O604        H639   0.966       .  S
O605       Zr608   2.409       .  S
O605       Zr625   2.372       .  S
O605        H642   0.964       .  S
O606       Zr609   2.370       .  S
O606       Zr625   2.355       .  S
Zr607       O632   2.446       .  S
Zr607       O626   2.563       .  S
Zr607       O634   2.431       .  S
Zr607       O622   2.454       .  S
Zr607       O614   2.434       .  S
Zr607       O615   2.375       .  S
Zr607       O616   2.385       .  S
Zr607       O613   2.365       .  S
Zr608       O627   2.434       .  S
Zr608       O620   2.434       .  S
Zr608       O621   2.455       .  S
Zr608       O614   2.402       .  S
Zr608       O615   2.403       .  S
Zr609       O611   2.435       .  S
Zr609       O633   2.437       .  S
Zr609       O635   2.476       .  S
Zr609       O616   2.373       .  S
Zr609       O613   2.289       .  S
Zr610       O636   2.440       .  S
Zr610       O637   2.437       .  S
Zr610       O612   2.437       .  S
Zr610       O614   2.389       .  S
Zr610       O613   2.358       .  S
O611        H648   0.990       .  S
O612        H643   0.990       .  S
O612        H657   0.990       .  S
O614        H640   0.963       .  S
O615       Zr625   2.401       .  S
O616       Zr625   2.401       .  S
O616        H641   0.965       .  S
C619       C1451   1.473       .  S
O620        H656   0.990       .  S
O621        C623   1.289       .  A
O622        C623   1.285       .  A
O624       Zr625   2.438       .  S
O624        H653   0.991       .  S
Zr625       O628   2.435       .  S
Zr625       O629   2.440       .  S
Zr625       O630   2.354       .  S
O626        C631   1.302       .  A
O627        H644   0.990       .  S
O627        H659   0.989       .  S
O628        H645   0.990       .  S
O629        H649   0.990       .  S
O629        H658   0.990       .  S
O630        C631   1.261       .  A
C631       C1034   1.500   1_565  S
O632        H651   0.991       .  S
O632        H655   0.991       .  S
O633        H647   0.989       .  S
O633        H654   0.990       .  S
O634        C638   1.276   1_455  A
O635        C638   1.296   1_455  A
O636        H646   0.990       .  S
O637        H650   0.990       .  S
C638        C763   1.492       .  S
Zr661       O662   2.442       .  S
Zr661       O663   2.471       .  S
Zr661       O664   2.426       .  S
Zr661       O667   2.451       .  S
Zr661       O669   2.378       .  S
Zr661       O670   2.404       .  S
Zr661       O671   2.421       .  S
Zr661       O672   2.379       .  S
O662        H718   0.990       .  S
O662        H726   0.990       .  S
O663        C683   1.285       .  A
O664        C685   1.282       .  A
O665       Zr675   2.498       .  S
O665        C684   1.298       .  A
O666       Zr674   2.423       .  S
O666       C2229   1.282   1_554  A
O667        C684   1.289       .  A
O668      Zr2220   2.518       .  S
O668        C683   1.297       .  A
O669      Zr2218   2.400       .  S
O669      Zr2220   2.361       .  S
O670       Zr675   2.424       .  S
O670      Zr2220   2.372       .  S
O670        H705   0.966       .  S
O671       Zr691   2.360       .  S
O671      Zr2218   2.408       .  S
O671        H708   0.962       .  S
O672       Zr675   2.363       .  S
O672       Zr691   2.340       .  S
Zr673       O698   2.447       .  S
Zr673       O692   2.577       .  S
Zr673       O700   2.434       .  S
Zr673       O688   2.474       .  S
Zr673       O680   2.440       .  S
Zr673       O681   2.371       .  S
Zr673      O2226   2.379   1_554  S
Zr673      O2223   2.369   1_554  S
Zr674       O693   2.433       .  S
Zr674       O686   2.434       .  S
Zr674       O687   2.456       .  S
Zr674       O680   2.400       .  S
Zr674       O681   2.405       .  S
Zr674      O2213   2.409   1_554  S
Zr674      O2215   2.408   1_554  S
Zr675       O677   2.436       .  S
Zr675       O699   2.437       .  S
Zr675       O701   2.502       .  S
Zr675       O682   2.378       .  S
Zr675       O679   2.287       .  S
Zr676       O703   2.443   1_556  S
Zr676       O678   2.439   1_556  S
Zr676      O2246   2.441       .  S
Zr676      O2212   2.510       .  S
Zr676       O680   2.396   1_556  S
Zr676      O2213   2.364       .  S
Zr676      O2214   2.368       .  S
Zr676      O2223   2.359       .  S
O677        H714   0.990       .  S
O678        H709   0.990       .  S
O678        H723   0.990       .  S
O679      Zr2217   2.367       .  S
O679      Zr2220   2.360       .  S
O680        H706   0.961       .  S
O681      Zr2235   2.410   1_554  S
O682       Zr691   2.404       .  S
O682      Zr2217   2.381       .  S
O682        H707   0.966       .  S
C683        C829   1.527       .  S
C684        C755   1.480       .  S
C685       O2210   1.292       .  A
C685       C1423   1.477       .  S
O686        H722   0.990       .  S
O687        C689   1.289       .  A
O688        C689   1.289       .  A
C689        C750   1.487       .  S
O690       Zr691   2.434       .  S
O690        H719   0.990       .  S
Zr691       O694   2.437       .  S
Zr691       O695   2.439       .  S
Zr691      O2240   2.329       .  S
Zr691      O2225   2.406       .  S
O692        C697   1.307   1_554  A
O693        H710   0.990       .  S
O693        H725   0.990       .  S
O694        H711   0.990       .  S
O695        H715   0.990       .  S
O695        H724   0.990       .  S
O696      Zr2235   2.331       .  S
O696        C697   1.255       .  A
C697       C2116   1.495       .  S
O698        H717   0.991       .  S
O698        H721   0.991       .  S
O699        H713   0.990       .  S
O699        H720   0.990       .  S
O700       C2248   1.277   1_554  A
O701        C704   1.300       .  A
O702      Zr2220   2.438       .  S
O702        H712   0.990       .  S
O703        H716   0.991       .  S
C704       O2244   1.278       .  A
Zr727       O728   2.446       .  S
Zr727       O729   2.470       .  S
Zr727       O730   2.477       .  S
Zr727       O733   2.473       .  S
Zr727       O735   2.383       .  S
Zr727       O736   2.414       .  S
Zr727       O737   2.419       .  S
Zr727       O738   2.381       .  S
O728        H784   0.990       .  S
O728        H792   0.989       .  S
O729        C749   1.285       .  A
O730        C751   1.294       .  A
O731       Zr741   2.489       .  S
O731        C750   1.298       .  A
O732       Zr740   2.413       .  S
O732        C751   1.282       .  A
O733        C750   1.294       .  A
O734       Zr742   2.500       .  S
O734        C749   1.295       .  A
O735       Zr740   2.404       .  S
O735       Zr742   2.366       .  S
O736       Zr741   2.417       .  S
O736       Zr742   2.365       .  S
O736        H771   0.966       .  S
O737       Zr740   2.419       .  S
O737       Zr757   2.379       .  S
O737        H774   0.964       .  S
O738       Zr741   2.367       .  S
O738       Zr757   2.333       .  S
Zr739       O764   2.449       .  S
Zr739       O758   2.567       .  S
Zr739       O766   2.412       .  S
Zr739       O754   2.461       .  S
Zr739       O746   2.435       .  S
Zr739       O747   2.368       .  S
Zr739       O748   2.384       .  S
Zr739       O745   2.366       .  S
Zr740       O759   2.434       .  S
Zr740       O752   2.436       .  S
Zr740       O753   2.455       .  S
Zr740       O746   2.389       .  S
Zr740       O747   2.406       .  S
Zr741       O743   2.436       .  S
Zr741       O765   2.437       .  S
Zr741       O767   2.510       .  S
Zr741       O748   2.376       .  S
Zr741       O745   2.275       .  S
Zr742       O768   2.439       .  S
Zr742       O769   2.436       .  S
Zr742       O744   2.438       .  S
Zr742       O746   2.391       .  S
Zr742       O745   2.351       .  S
O743        H780   0.990       .  S
O744        H775   0.990       .  S
O744        H789   0.990       .  S
O746        H772   0.961       .  S
O747       Zr757   2.412       .  S
O748       Zr757   2.410       .  S
O748        H773   0.966       .  S
C749        C881   1.517       .  S
C751       C1409   1.487       .  S
O752        H788   0.990       .  S
O753        C755   1.289       .  A
O754        C755   1.285       .  A
O756       Zr757   2.443       .  S
O756        H785   0.989       .  S
Zr757       O760   2.441       .  S
Zr757       O761   2.437       .  S
Zr757       O762   2.335       .  S
O758        C763   1.303       .  A
O759        H776   0.989       .  S
O759        H791   0.990       .  S
O760        H777   0.990       .  S
O761        H781   0.990       .  S
O761        H790   0.990       .  S
O762        C763   1.254       .  A
O764        H783   0.991       .  S
O764        H787   0.991       .  S
O765        H779   0.990       .  S
O765        H786   0.990       .  S
O766        C770   1.272       .  A
O767        C770   1.303       .  A
O768        H778   0.990       .  S
O769        H782   0.990       .  S
Zr793       O794   2.446       .  S
Zr793       O795   2.577       .  S
Zr793       O796   2.490       .  S
Zr793       O799   2.432       .  S
Zr793       O801   2.372       .  S
Zr793       O802   2.391       .  S
Zr793       O803   2.441       .  S
Zr793       O804   2.377       .  S
O794        H850   0.991       .  S
O794        H858   0.990       .  S
O795        C815   1.306       .  A
O796        C817   1.292       .  A
O797       Zr807   2.481       .  S
O797        C816   1.298       .  A
O798       Zr806   2.460       .  S
O798        C817   1.286       .  A
O799        C816   1.275       .  A
O800       Zr808   2.346       .  S
O800        C815   1.260       .  A
O801       Zr806   2.405       .  S
O801       Zr808   2.412       .  S
O802       Zr807   2.382       .  S
O802       Zr808   2.400       .  S
O802        H837   0.966       .  S
O803       Zr806   2.393       .  S
O803       Zr823   2.394       .  S
O803        H840   0.959       .  S
O804       Zr807   2.290       .  S
O804       Zr823   2.361       .  S
Zr805      O2374   2.442       .  S
Zr805       O824   2.466       .  S
Zr805       O820   2.437       .  S
Zr805      O2376   2.488       .  S
Zr805       O811   2.378       .  S
Zr805       O812   2.438       .  S
Zr805       O813   2.388       .  S
Zr805       O814   2.403       .  S
Zr806       O825   2.445       .  S
Zr806       O818   2.434       .  S
Zr806       O819   2.423       .  S
Zr806       O812   2.420       .  S
Zr806       O813   2.414       .  S
Zr807       O809   2.437       .  S
Zr807      O2375   2.439       .  S
Zr807      O2377   2.495       .  S
Zr807       O811   2.355       .  S
Zr807       O814   2.419       .  S
Zr808       O834   2.437       .  S
Zr808       O835   2.435       .  S
Zr808       O810   2.438       .  S
Zr808       O811   2.339       .  S
Zr808       O812   2.376       .  S
O809        H846   0.990       .  S
O810        H841   0.990       .  S
O810        H855   0.990       .  S
O812        H838   0.959       .  S
O813       Zr823   2.357       .  S
O814       Zr823   2.371       .  S
O814        H839   0.967       .  S
C817        C882   1.493       .  S
O818        H854   0.990       .  S
O819        C821   1.275       .  A
O820        C821   1.286       .  A
C821       C1392   1.485       .  S
O822       Zr823   2.438       .  S
O822        H851   0.990       .  S
Zr823       O826   2.437       .  S
Zr823       O827   2.443       .  S
Zr823       O828   2.519       .  S
O824        C829   1.285       .  A
O825        H842   0.990       .  S
O825        H857   0.990       .  S
O826        H843   0.990       .  S
O827        H847   0.990       .  S
O827        H856   0.990       .  S
O828        C829   1.297       .  A
O830      Zr2349   2.444   1_554  S
O830        H849   0.991       .  S
O830       H2397   0.990       .  S
O831      Zr2351   2.437   1_554  S
O831        H845   0.990       .  S
O831       H2396   0.990       .  S
O832      Zr2349   2.481   1_554  S
O832        C836   1.294       .  A
O833      Zr2351   2.484   1_554  S
O833        C836   1.295       .  A
O834        H844   0.990       .  S
O835        H848   0.990       .  S
C836        C887   1.486       .  S
H852       O2375   0.990       .  S
H853       O2374   0.990       .  S
Zr859       O860   2.440       .  S
Zr859       O861   2.448       .  S
Zr859       O862   2.444       .  S
Zr859       O865   2.492       .  S
Zr859       O867   2.393       .  S
Zr859       O868   2.405       .  S
Zr859       O869   2.436       .  S
Zr859       O870   2.363       .  S
O860        H916   0.991       .  S
O860        H924   0.990       .  S
O861        C881   1.280       .  A
O862        C883   1.288       .  A
O863       Zr873   2.497       .  S
O863        C882   1.297       .  A
O864       Zr872   2.425       .  S
O864        C883   1.275       .  A
O865        C882   1.298       .  A
O866       Zr874   2.520       .  S
O866        C881   1.297       .  A
O867       Zr872   2.410       .  S
O867       Zr874   2.353       .  S
O868       Zr873   2.419       .  S
O868       Zr874   2.371       .  S
O868        H903   0.966       .  S
O869       Zr872   2.418       .  S
O869       Zr889   2.369       .  S
O869        H906   0.964       .  S
O870       Zr873   2.349       .  S
O870       Zr889   2.330       .  S
Zr871       O896   2.447       .  S
Zr871       O890   2.583       .  S
Zr871       O898   2.423       .  S
Zr871       O886   2.474       .  S
Zr871       O878   2.442       .  S
Zr871       O879   2.369       .  S
Zr871       O880   2.384       .  S
Zr871       O877   2.369       .  S
Zr872       O891   2.436       .  S
Zr872       O884   2.434       .  S
Zr872       O885   2.455       .  S
Zr872       O878   2.396       .  S
Zr872       O879   2.407       .  S
Zr873       O875   2.437       .  S
Zr873       O897   2.439       .  S
Zr873       O899   2.485       .  S
Zr873       O880   2.383       .  S
Zr873       O877   2.282       .  S
Zr874       O900   2.437       .  S
Zr874       O901   2.436       .  S
Zr874       O876   2.439       .  S
Zr874       O878   2.395       .  S
Zr874       O877   2.358       .  S
O875        H912   0.990       .  S
O876        H907   0.991       .  S
O876        H921   0.990       .  S
O878        H904   0.961       .  S
O879       Zr889   2.408       .  S
O880       Zr889   2.408       .  S
O880        H905   0.966       .  S
C883       C1378   1.489       .  S
O884        H920   0.990       .  S
O885        C887   1.288       .  A
O886        C887   1.289       .  A
O888       Zr889   2.435       .  S
O888        H917   0.991       .  S
Zr889       O892   2.434       .  S
Zr889       O893   2.437       .  S
Zr889       O894   2.339       .  S
O890        C895   1.308       .  A
O891        H908   0.989       .  S
O891        H923   0.990       .  S
O892        H909   0.988       .  S
O893        H913   0.990       .  S
O893        H922   0.990       .  S
O894        C895   1.260       .  A
O896        H915   0.991       .  S
O896        H919   0.991       .  S
O897        H911   0.990       .  S
O897        H918   0.990       .  S
O898        C902   1.273       .  A
O899        C902   1.299       .  A
O900        H910   0.990       .  S
O901        H914   0.990       .  S
Zr925       O926   2.439       .  S
Zr925       O927   2.486       .  S
Zr925       O928   2.444       .  S
Zr925       O931   2.516       .  S
Zr925       O934   2.399       .  S
Zr925       O935   2.438       .  S
Zr925       O936   2.382       .  S
Zr925      O2477   2.389       .  S
O926        H982   0.991       .  S
O926        H990   0.990       .  S
O927        C947   1.291       .  A
O928       C2493   1.288       .  A
O929       Zr939   2.488       .  S
O929        C948   1.296       .  A
O930       Zr938   2.427       .  S
O930        C949   1.276   1_554  A
O931        C948   1.302       .  A
O932      Zr2484   2.486       .  S
O932        C947   1.291       .  A
O933       Zr938   2.405   1_556  S
O933       Zr940   2.364   1_556  S
O933      Zr2469   2.387       .  S
O934       Zr939   2.413       .  S
O934      Zr2484   2.373       .  S
O934        H969   0.967       .  S
O935       Zr955   2.380       .  S
O935      Zr2482   2.419       .  S
O935        H972   0.964       .  S
O936       Zr939   2.355       .  S
O936       Zr955   2.348       .  S
Zr937       O962   2.441       .  S
Zr937       O956   2.564       .  S
Zr937       O964   2.447       .  S
Zr937       O952   2.501       .  S
Zr937       O943   2.465   1_554  S
Zr937       O944   2.434       .  S
Zr937       O945   2.376       .  S
Zr937      O2490   2.407   1_554  S
Zr938       O957   2.436       .  S
Zr938       O950   2.435       .  S
Zr938       O951   2.446       .  S
Zr938       O944   2.393       .  S
Zr938       O945   2.394       .  S
Zr938      O2479   2.413   1_554  S
Zr939       O941   2.437       .  S
Zr939       O963   2.436       .  S
Zr939       O965   2.461       .  S
Zr939       O946   2.384       .  S
Zr939      O2487   2.290       .  S
Zr940       O967   2.435       .  S
Zr940       O942   2.439       .  S
Zr940      O2510   2.435   1_554  S
Zr940      O2476   2.477   1_554  S
Zr940       O943   2.439   1_554  S
Zr940       O944   2.382       .  S
Zr940      O2478   2.377   1_554  S
O941        H978   0.990       .  S
O942        H973   0.990       .  S
O942        H987   0.990       .  S
O943      Zr2483   2.386       .  S
O944        H970   0.959       .  S
O945      Zr2499   2.403   1_554  S
O946       Zr955   2.390       .  S
O946      Zr2481   2.396       .  S
O946        H971   0.966       .  S
C947       C1079   1.516       .  S
C948       C1019   1.509       .  S
C949       O2472   1.292       .  A
C949       C1364   1.491       .  S
O950        H986   0.990       .  S
O951        C953   1.287       .  A
O952        C953   1.296       .  A
C953       C1014   1.491       .  S
O954       Zr955   2.436       .  S
O954        H983   0.990       .  S
Zr955       O959   2.437       .  S
Zr955      O2502   2.433   1_455  S
Zr955      O2504   2.361   1_455  S
Zr955      O2489   2.409       .  S
O956        C961   1.301   1_455  A
O957        H974   0.990       .  S
O957        H989   0.989       .  S
O958      Zr2499   2.433   1_655  S
O958        H975   0.990       .  S
O959        H979   0.990   1_455  S
O959        H988   0.990       .  S
O960      Zr2499   2.373   1_655  S
O960        C961   1.261   1_556  A
O962        H981   0.991       .  S
O962        H985   0.990       .  S
O963        H977   0.989       .  S
O963        H984   0.990       .  S
O964        C968   1.281   1_554  A
O965       C2512   1.293       .  A
O966      Zr2484   2.436       .  S
O966        H976   0.990       .  S
O967        H980   0.990       .  S
C968       O2509   1.296       .  A
Zr991       O992   2.439       .  S
Zr991       O993   2.485       .  S
Zr991       O994   2.418       .  S
Zr991       O997   2.485       .  S
Zr991       O999   2.398       .  S
Zr991      O1000   2.399       .  S
Zr991      O1001   2.451       .  S
Zr991      O1002   2.370       .  S
O992       H1048   0.991       .  S
O992       H1056   0.990       .  S
O993       C1013   1.290       .  A
O994       C1015   1.275       .  A
O995      Zr1005   2.494       .  S
O995       C1014   1.296       .  A
O996      Zr1004   2.466       .  S
O996       C1015   1.286       .  A
O997       C1014   1.297       .  A
O998      Zr1006   2.493       .  S
O998       C1013   1.292       .  A
O999      Zr1004   2.415       .  S
O999      Zr1006   2.366       .  S
O1000     Zr1005   2.415       .  S
O1000     Zr1006   2.376       .  S
O1000      H1035   0.966       .  S
O1001     Zr1004   2.421       .  S
O1001     Zr1021   2.368       .  S
O1001      H1038   0.954       .  S
O1002     Zr1005   2.339       .  S
O1002     Zr1021   2.338       .  S
Zr1003     O1028   2.443       .  S
Zr1003     O1022   2.584       .  S
Zr1003     O1030   2.475       .  S
Zr1003     O1018   2.519       .  S
Zr1003     O1010   2.433       .  S
Zr1003     O1011   2.376       .  S
Zr1003     O1012   2.397       .  S
Zr1003     O1009   2.374       .  S
Zr1004     O1023   2.433       .  S
Zr1004     O1016   2.436       .  S
Zr1004     O1017   2.486       .  S
Zr1004     O1010   2.411       .  S
Zr1004     O1011   2.414       .  S
Zr1005     O1007   2.436       .  S
Zr1005     O1029   2.438       .  S
Zr1005     O1031   2.448       .  S
Zr1005     O1012   2.396       .  S
Zr1005     O1009   2.291       .  S
Zr1006     O1032   2.436       .  S
Zr1006     O1033   2.436       .  S
Zr1006     O1008   2.441       .  S
Zr1006     O1010   2.373       .  S
Zr1006     O1009   2.354       .  S
O1007      H1044   0.989       .  S
O1008      H1039   0.990       .  S
O1008      H1053   0.990       .  S
O1010      H1036   0.955       .  S
O1011     Zr1021   2.411       .  S
O1012     Zr1021   2.387       .  S
O1012      H1037   0.965       .  S
C1013      C1159   1.521       .  S
C1015      C1350   1.490       .  S
O1016      H1052   0.990       .  S
O1017      C1019   1.294       .  A
O1018      C1019   1.301       .  A
O1020     Zr1021   2.436       .  S
O1020      H1049   0.990       .  S
Zr1021     O1024   2.439   1_455  S
Zr1021     O1025   2.439       .  S
Zr1021     O1026   2.349   1_455  S
O1022      C1027   1.306   1_455  A
O1023      H1040   0.988       .  S
O1023      H1055   0.990       .  S
O1024      H1041   0.990       .  S
O1025      H1045   0.989   1_455  S
O1025      H1054   0.990       .  S
O1026      C1027   1.257       .  A
O1028      H1047   0.990       .  S
O1028      H1051   0.991       .  S
O1029      H1043   0.990       .  S
O1029      H1050   0.990       .  S
O1030      C1034   1.285       .  A
O1031      C1034   1.290       .  A
O1032      H1042   0.991       .  S
O1033      H1046   0.990       .  S
Zr1057     O2602   2.440       .  S
Zr1057     O1059   2.475       .  S
Zr1057     O1060   2.425       .  S
Zr1057     O2607   2.505       .  S
Zr1057     O1065   2.388       .  S
Zr1057     O1066   2.398       .  S
Zr1057     O1067   2.439       .  S
Zr1057     O1068   2.370       .  S
O1058     Zr2601   2.439   1_554  S
O1058      H1114   0.991       .  S
O1058      H2666   0.990       .  S
O1059      C1079   1.288       .  A
O1060      C1081   1.286       .  A
O1061     Zr2615   2.473   1_554  S
O1061      C1080   1.292       .  A
O1062     Zr1070   2.433       .  S
O1062      C1081   1.279       .  A
O1063     Zr2601   2.496   1_554  S
O1063      C1080   1.299       .  A
O1064     Zr1072   2.501       .  S
O1064      C1079   1.293       .  A
O1065     Zr1070   2.397       .  S
O1065     Zr1072   2.352       .  S
O1066     Zr1071   2.414       .  S
O1066     Zr1072   2.373       .  S
O1066      H1101   0.965       .  S
O1067     Zr1070   2.411       .  S
O1067     Zr1087   2.375       .  S
O1067      H1104   0.963       .  S
O1068     Zr1071   2.371       .  S
O1068     Zr1087   2.348       .  S
Zr1069     O1094   2.444       .  S
Zr1069     O1088   2.595       .  S
Zr1069     O1096   2.461       .  S
Zr1069     O1084   2.494       .  S
Zr1069     O1076   2.446       .  S
Zr1069     O1077   2.377       .  S
Zr1069     O1078   2.378       .  S
Zr1069     O1075   2.366       .  S
Zr1070     O1089   2.433       .  S
Zr1070     O1082   2.432       .  S
Zr1070     O1083   2.443       .  S
Zr1070     O1076   2.406       .  S
Zr1070     O1077   2.403       .  S
Zr1071     O1095   2.437       .  S
Zr1071     O2617   2.434       .  S
Zr1071     O1097   2.471       .  S
Zr1071     O2605   2.465       .  S
Zr1071     O1078   2.382       .  S
Zr1071     O1075   2.282       .  S
Zr1072     O1098   2.438       .  S
Zr1072     O1099   2.435       .  S
Zr1072     O1074   2.439       .  S
Zr1072     O1076   2.387       .  S
Zr1072     O1075   2.356       .  S
O1073     Zr2615   2.437   1_554  S
O1073      H1110   0.990       .  S
O1074      H1105   0.991       .  S
O1074      H1119   0.990       .  S
O1076      H1102   0.960       .  S
O1077     Zr1087   2.399       .  S
O1078     Zr1087   2.414       .  S
O1078      H1103   0.966       .  S
C1080      C1147   1.492       .  S
C1081      C1336   1.476       .  S
O1082      H1118   0.990       .  S
O1083      C1085   1.285       .  A
O1084      C1085   1.294       .  A
C1085      C1166   1.486       .  S
O1086     Zr1087   2.439       .  S
O1086      H1115   0.990       .  S
Zr1087     O1090   2.438       .  S
Zr1087     O1091   2.439       .  S
Zr1087     O1092   2.333       .  S
O1088      C1093   1.312       .  A
O1089      H1106   0.990       .  S
O1089      H1121   0.990       .  S
O1090      H1107   0.990       .  S
O1091      H1111   0.990       .  S
O1091      H1120   0.990       .  S
O1092      C1093   1.259       .  A
O1094      H1113   0.991       .  S
O1094      H1117   0.991       .  S
O1095      H1116   0.990       .  S
O1095      H2653   0.990       .  S
O1096      C1100   1.282       .  A
O1097      C1100   1.296       .  A
O1098      H1108   0.990       .  S
O1099      H1112   0.990       .  S
H1109      O2639   0.990       .  S
H1122      O2602   0.990       .  S
Zr1123     O1124   2.444       .  S
Zr1123     O1125   2.594       .  S
Zr1123     O1126   2.505       .  S
Zr1123     O1129   2.463       .  S
Zr1123     O1131   2.379       .  S
Zr1123     O1132   2.383       .  S
Zr1123     O1133   2.449       .  S
Zr1123     O1134   2.370       .  S
O1124      H1180   0.991       .  S
O1124      H1188   0.991       .  S
O1125      C1145   1.311       .  A
O1126      C1147   1.296       .  A
O1127     Zr1137   2.476       .  S
O1127      C1146   1.296       .  A
O1128     Zr1136   2.438       .  S
O1128      C1147   1.283       .  A
O1129      C1146   1.282       .  A
O1130     Zr1138   2.327       .  S
O1130      C1145   1.257       .  A
O1131     Zr1136   2.405       .  S
O1131     Zr1138   2.405       .  S
O1132     Zr1137   2.379       .  S
O1132     Zr1138   2.417       .  S
O1132      H1167   0.966       .  S
O1133     Zr1136   2.399       .  S
O1133     Zr1153   2.395       .  S
O1133      H1170   0.961       .  S
O1134     Zr1137   2.281       .  S
O1134     Zr1153   2.357       .  S
Zr1135     O1160   2.440       .  S
Zr1135     O1154   2.471       .  S
Zr1135     O1162   2.489       .  S
Zr1135     O1150   2.438       .  S
Zr1135     O1141   2.370       .  S
Zr1135     O1142   2.425       .  S
Zr1135     O1143   2.381       .  S
Zr1135     O1144   2.403       .  S
Zr1136     O1155   2.440       .  S
Zr1136     O1148   2.430       .  S
Zr1136     O1149   2.414       .  S
Zr1136     O1142   2.403       .  S
Zr1136     O1143   2.390       .  S
Zr1137     O1139   2.437       .  S
Zr1137     O1161   2.440       .  S
Zr1137     O1163   2.469       .  S
Zr1137     O1141   2.369       .  S
Zr1137     O1144   2.412       .  S
Zr1138     O1164   2.435       .  S
Zr1138     O1165   2.438       .  S
Zr1138     O1140   2.442       .  S
Zr1138     O1141   2.338       .  S
Zr1138     O1142   2.369       .  S
O1139      H1176   0.990       .  S
O1140      H1171   0.990       .  S
O1140      H1185   0.990       .  S
O1142      H1168   0.964       .  S
O1143     Zr1153   2.350       .  S
O1144     Zr1153   2.374       .  S
O1144      H1169   0.965       .  S
O1148      H1184   0.990       .  S
O1149      C1151   1.279       .  A
O1150      C1151   1.289       .  A
C1151      C1322   1.481       .  S
O1152     Zr1153   2.439       .  S
O1152      H1181   0.990       .  S
Zr1153     O1156   2.436       .  S
Zr1153     O1157   2.446       .  S
Zr1153     O1158   2.510       .  S
O1154      C1159   1.288       .  A
O1155      H1172   0.990       .  S
O1155      H1187   0.990       .  S
O1156      H1173   0.990       .  S
O1157      H1177   0.990       .  S
O1157      H1186   0.990       .  S
O1158      C1159   1.296       .  A
O1160      H1179   0.990       .  S
O1160      H1183   0.991       .  S
O1161      H1175   0.990       .  S
O1161      H1182   0.990       .  S
O1162      C1166   1.297       .  A
O1163      C1166   1.292       .  A
O1164      H1174   0.990       .  S
O1165      H1178   0.990       .  S
Zr1189     O1190   2.442   1_655  S
Zr1189     O1191   2.414   1_554  S
Zr1189     O1192   2.436       .  S
Zr1189     O2739   2.411   1_654  S
Zr1189     O1199   2.398       .  S
Zr1189     O2741   2.393   1_554  S
Zr1189     O2742   2.396   1_554  S
Zr1189     O2744   2.409   1_554  S
O1190      H1246   0.990       .  S
O1190      H1254   0.990       .  S
O1191      C2755   1.272       .  A
O1192      C1213   1.283       .  A
O1193     Zr1203   2.438   1_455  S
O1193      C1212   1.285       .  A
O1194     Zr1202   2.435       .  S
O1194      C1213   1.283       .  A
O1195     Zr2733   2.405   1_455  S
O1195      C1212   1.280       .  A
O1196     Zr1204   2.424       .  S
O1196      C1211   1.277       .  A
O1197     Zr1204   2.387       .  S
O1197     Zr2733   2.386       .  S
O1197     Zr2746   2.383       .  S
O1198     Zr1203   2.376       .  S
O1198     Zr1204   2.386       .  S
O1198     Zr2733   2.401       .  S
O1198      H1233   0.963       .  S
O1199     Zr1202   2.417       .  S
O1199     Zr2763   2.385   1_554  S
O1199      H1236   0.963       .  S
O1200     Zr1203   2.393       .  S
O1200     Zr1219   2.375       .  S
O1200     Zr2733   2.402       .  S
Zr1201     O1226   2.444       .  S
Zr1201     O1220   2.453       .  S
Zr1201     O1228   2.446       .  S
Zr1201     O1216   2.416       .  S
Zr1201     O1207   2.397       .  S
Zr1201     O1208   2.429       .  S
Zr1201     O1209   2.373       .  S
Zr1201     O1210   2.389       .  S
Zr1202     O1221   2.441       .  S
Zr1202     O1214   2.436       .  S
Zr1202     O2759   2.429   1_554  S
Zr1202     O2741   2.394   1_554  S
Zr1202     O2752   2.411   1_554  S
Zr1202     O2753   2.382   1_554  S
Zr1203     O1205   2.433   1_655  S
Zr1203     O1227   2.441   1_655  S
Zr1203     O1229   2.439       .  S
Zr1203     O1207   2.392       .  S
Zr1203     O1210   2.386       .  S
Zr1204     O1230   2.433       .  S
Zr1204     O1231   2.436       .  S
Zr1204     O1206   2.441       .  S
Zr1204     O1207   2.406       .  S
Zr1204     O1208   2.401       .  S
O1205      H1242   0.990       .  S
O1206      H1237   0.990       .  S
O1206      H1251   0.990       .  S
O1208     Zr2746   2.405       .  S
O1208      H1234   0.966       .  S
O1209     Zr1219   2.371       .  S
O1209     Zr2746   2.387       .  S
O1210     Zr1219   2.391       .  S
O1210      H1235   0.966       .  S
C1211      O2735   1.273       .  A
C1211      C1367   1.482   1_655  S
C1212      C1339   1.460       .  S
C1213      C1298   1.468       .  S
O1214      H1250   0.991   1_554  S
O1215     Zr2746   2.421       .  S
O1215      C1217   1.278       .  A
O1216      C1217   1.276       .  A
C1217      C1395   1.469       .  S
O1218     Zr2763   2.438   1_454  S
O1218      H1247   0.990       .  S
Zr1219     O1223   2.440       .  S
Zr1219     O2762   2.439   1_655  S
Zr1219     O2766   2.434       .  S
Zr1219     O1224   2.388       .  S
Zr1219     O2743   2.380       .  S
O1220      C1225   1.288       .  A
O1221      H1238   0.990       .  S
O1221      H1253   0.991       .  S
O1222     Zr2763   2.441   1_554  S
O1222      H1239   0.990       .  S
O1223      H1243   0.990   1_655  S
O1223      H1252   0.990       .  S
O1224      C1225   1.275       .  A
C1225      C1420   1.467       .  S
O1226      H1245   0.990       .  S
O1226      H1249   0.990       .  S
O1227      H1241   0.990       .  S
O1227      H1248   0.990       .  S
O1228      C1232   1.284       .  A
O1229      C1232   1.286       .  A
O1230      H1240   0.990       .  S
O1231      H1244   0.990       .  S
C1232      C1279   1.482       .  S
Zr1255     O1256   2.440       .  S
Zr1255     O1257   2.403       .  S
Zr1255     O1258   2.465       .  S
Zr1255     O1261   2.418       .  S
Zr1255     O1263   2.387       .  S
Zr1255     O1264   2.401       .  S
Zr1255     O1265   2.394       .  S
Zr1255     O1266   2.407       .  S
O1256      H1312   0.990       .  S
O1256      H1320   0.990       .  S
O1257      C1277   1.280       .  A
O1258      C1279   1.288       .  A
O1259     Zr1269   2.443       .  S
O1259      C1278   1.286       .  A
O1260     Zr1268   2.416       .  S
O1260      C1279   1.280       .  A
O1261      C1278   1.278       .  A
O1262     Zr1270   2.442       .  S
O1262      C1277   1.286       .  A
O1263     Zr1268   2.383       .  S
O1263     Zr1270   2.386       .  S
O1264     Zr1269   2.390       .  S
O1264     Zr1270   2.353       .  S
O1264      H1299   0.958       .  S
O1265     Zr1268   2.410       .  S
O1265     Zr1285   2.408       .  S
O1265      H1302   0.965       .  S
O1266     Zr1269   2.393       .  S
O1266     Zr1285   2.390       .  S
Zr1267     O1292   2.443   1_655  S
Zr1267     O1286   2.426       .  S
Zr1267     O1294   2.427       .  S
Zr1267     O1282   2.425   1_655  S
Zr1267     O1273   2.397       .  S
Zr1267     O1274   2.409       .  S
Zr1267     O1275   2.370       .  S
Zr1267     O1276   2.392       .  S
Zr1268     O1287   2.436       .  S
Zr1268     O1280   2.433   1_655  S
Zr1268     O1281   2.423   1_655  S
Zr1268     O1274   2.398       .  S
Zr1268     O1275   2.362       .  S
Zr1269     O1271   2.433       .  S
Zr1269     O1293   2.442       .  S
Zr1269     O1295   2.427       .  S
Zr1269     O1273   2.405       .  S
Zr1269     O1276   2.386       .  S
Zr1270     O1296   2.434       .  S
Zr1270     O1297   2.437       .  S
Zr1270     O1272   2.436   1_655  S
Zr1270     O1273   2.403       .  S
Zr1270     O1274   2.391       .  S
O1271      H1308   0.990       .  S
O1272      H1303   0.990   1_455  S
O1272      H1317   0.990   1_455  S
O1274      H1300   0.966   1_655  S
O1275     Zr1285   2.377       .  S
O1276     Zr1285   2.393       .  S
O1276      H1301   0.967       .  S
C1277      C1406   1.474       .  S
C1278      C1381   1.485       .  S
O1280      H1316   0.990       .  S
O1281      C1283   1.281       .  A
O1282      C1283   1.285       .  A
C1283      C1325   1.481       .  S
O1284     Zr1285   2.436       .  S
O1284      H1313   0.990       .  S
Zr1285     O1288   2.432       .  S
Zr1285     O1289   2.439       .  S
Zr1285     O1290   2.419       .  S
O1286      C1291   1.277       .  A
O1287      H1304   0.990   1_655  S
O1287      H1319   0.990       .  S
O1288      H1305   0.990       .  S
O1289      H1309   0.990       .  S
O1289      H1318   0.989       .  S
O1290      C1291   1.275       .  A
C1291      C1353   1.480       .  S
O1292      H1311   0.990       .  S
O1292      H1315   0.990       .  S
O1293      H1307   0.990       .  S
O1293      H1314   0.990       .  S
O1294      C1298   1.283       .  A
O1295      C1298   1.283       .  A
O1296      H1306   0.990       .  S
O1297      H1310   0.990   1_655  S
C1321      C1322   1.403       .  A
C1321      C1326   1.396       .  A
C1321      H1328   1.084       .  S
C1322      C1323   1.418       .  A
C1323      C1324   1.391       .  A
C1323      N1330   1.430       .  S
C1324      C1325   1.401       .  A
C1324      H1329   1.084       .  S
C1325      C1326   1.416       .  A
C1326      N1327   1.428       .  S
N1327      O1331   1.261       .  A
N1327      O1332   1.262       .  A
N1330      O1334   1.262       .  A
N1330      O1333   1.261       .  A
C1335      C1336   1.405       .  A
C1335      C1340   1.390       .  A
C1335      H1342   1.084       .  S
C1336      C1337   1.417       .  A
C1337      C1338   1.396       .  A
C1337      N1344   1.428       .  S
C1338      C1339   1.397       .  A
C1338      H1343   1.084       .  S
C1339      C1340   1.405       .  A
C1340      N1341   1.429       .  S
N1341      O1345   1.261       .  A
N1341      O1346   1.262       .  A
N1344      O1348   1.261       .  A
N1344      O1347   1.260       .  A
C1349      C1350   1.400       .  A
C1349      C1354   1.398       .  A
C1349      H1356   1.081       .  S
C1350      C1351   1.424       .  A
C1351      C1352   1.392       .  A
C1351      N1358   1.428       .  S
C1352      C1353   1.396   1_455  A
C1352      H1357   1.084       .  S
C1353      C1354   1.416   1_655  A
C1354      N1355   1.428   1_455  S
N1355      O1359   1.261       .  A
N1355      O1360   1.260       .  A
N1358      O1362   1.261       .  A
N1358      O1361   1.261       .  A
C1363      C1364   1.404       .  A
C1363      C1368   1.390       .  A
C1363      H1370   1.082       .  S
C1364      C2909   1.420   1_556  A
C1365      C1366   1.402       .  A
C1365      C2908   1.418       .  A
C1365      N1372   1.427       .  S
C1366      C1367   1.405       .  A
C1366      H1371   1.083       .  S
C1367      C2912   1.412       .  A
C1368      C2911   1.413   1_455  A
C1368      N1369   1.428       .  S
N1369      O2917   1.262       .  A
N1369      O1374   1.262   1_455  A
N1372      O2920   1.260       .  A
N1372      O1375   1.261       .  A
O1373      N2913   1.262       .  A
O1376      N2916   1.260       .  A
C1377      C1378   1.404       .  A
C1377      C1382   1.390       .  A
C1377      H1384   1.083       .  S
C1378      C1379   1.418       .  A
C1379      C1380   1.400       .  A
C1379      N1386   1.429       .  S
C1380      C1381   1.406       .  A
C1380      H1385   1.084       .  S
C1381      C1382   1.412       .  A
C1382      N1383   1.426       .  S
N1383      O1387   1.261       .  A
N1383      O1388   1.262       .  A
N1386      O1390   1.261       .  A
N1386      O1389   1.261       .  A
C1391      C1392   1.413       .  A
C1391      C1396   1.392       .  A
C1391      H1398   1.083       .  S
C1392      C1393   1.419       .  A
C1393      C1394   1.390       .  A
C1393      N1400   1.428       .  S
C1394      C1395   1.397       .  A
C1394      H1399   1.079       .  S
C1395      C1396   1.405       .  A
C1396      N2941   1.431       .  S
N1397      C2940   1.429   1_554  S
N1397      O1401   1.262       .  A
N1397      O1402   1.262       .  A
N1400      O1404   1.259       .  A
N1400      O1403   1.260       .  A
C1405      C1406   1.395       .  A
C1405      C1410   1.392       .  A
C1405      H1412   1.084       .  S
C1406      C1407   1.409       .  A
C1407      C1408   1.403       .  A
C1407      N1414   1.429       .  S
C1408      C1409   1.410       .  A
C1408      H1413   1.084       .  S
C1409      C1410   1.419       .  A
C1410      N1411   1.428       .  S
N1411      O1415   1.262       .  A
N1411      O1416   1.262       .  A
N1414      O1418   1.262       .  A
N1414      O1417   1.262       .  A
C1419      C1420   1.393       .  A
C1419      C1424   1.398       .  A
C1419      H1426   1.084       .  S
C1420      C1421   1.414       .  A
C1421      C1422   1.390       .  A
C1421      N1428   1.427       .  S
C1422      C1423   1.398       .  A
C1422      H1427   1.084       .  S
C1423      C1424   1.423       .  A
C1424      N1425   1.430       .  S
N1425      O1429   1.261       .  A
N1425      O1430   1.261       .  A
N1428      O1432   1.259       .  A
N1428      O1431   1.262       .  A
C1433      C1434   1.404       .  A
C1433      C1438   1.392       .  A
C1433      H1440   1.084       .  S
C1434      C1435   1.411       .  A
C1435      C1436   1.401       .  A
C1435      N1442   1.427       .  S
C1436      C1437   1.405       .  A
C1436      H1441   1.079       .  S
C1437      C1438   1.420       .  A
C1438      N1439   1.430       .  S
N1439      O1443   1.260       .  A
N1439      O1444   1.262       .  A
N1442      O1446   1.260       .  A
N1442      O1445   1.262       .  A
C1447      C1448   1.404       .  A
C1447      C1452   1.386       .  A
C1447      H1454   1.081       .  S
C1448      C1449   1.405       .  A
C1449      C1450   1.394       .  A
C1449      N1456   1.428       .  S
C1450      C1451   1.411       .  A
C1450      H1455   1.083       .  S
C1451      C1452   1.408       .  A
C1452      N1453   1.429       .  S
N1453      O1457   1.261       .  A
N1453      O1458   1.262       .  A
N1456      O1460   1.262       .  A
N1456      O1459   1.261       .  A
C1461      C1462   1.405       .  A
C1461      C1466   1.411       .  A
C1461      H1468   1.083       .  S
C1462      C1463   1.416       .  A
C1463      C1464   1.386       .  A
C1463      N1470   1.427       .  S
C1464      C1465   1.398       .  A
C1464      H1469   1.083       .  S
C1465      C1466   1.421       .  A
C1466      N1467   1.436       .  S
N1467      O1471   1.261       .  A
N1467      O1472   1.263       .  A
N1470      O1474   1.261       .  A
N1470      O1473   1.261       .  A
C1475      C1480   1.398       .  A
C1475      C3020   1.409       .  A
C1475      H1482   1.083   1_556  S
C1476      C1477   1.405       .  A
C1476      C3019   1.403       .  A
C1477      C1478   1.388       .  A
C1477      N1484   1.428       .  S
C1478      C1479   1.404       .  A
C1478      H1483   1.084       .  S
C1479      C3024   1.410       .  A
C1480      C3023   1.410       .  A
C1480      N1481   1.427   1_556  S
N1481      O1485   1.261       .  A
N1481      O1486   1.261       .  A
N1484      O1488   1.262       .  A
N1484      O1487   1.262       .  A
C1489      C1490   1.400       .  A
C1489      C1494   1.390       .  A
C1489      H1496   1.083       .  S
C1490      C1491   1.424       .  A
C1491      C1492   1.392       .  A
C1491      N1498   1.431       .  S
C1492      C1493   1.393       .  A
C1492      H1497   1.085       .  S
C1493      C1494   1.412       .  A
C1494      N1495   1.428       .  S
N1495      O1499   1.262       .  A
N1495      O1500   1.260       .  A
N1498      O1502   1.261       .  A
N1498      O1501   1.260       .  A
C1503      C1504   1.408       .  A
C1503      C1508   1.397       .  A
C1503      H3054   1.084       .  S
C1504      C1505   1.410       .  A
C1505      C1506   1.387       .  A
C1505      N1512   1.428       .  S
C1506      C1507   1.398       .  A
C1506      H1511   1.084       .  S
C1507      C1508   1.404       .  A
C1508      N3053   1.423       .  S
N1509      C3052   1.423   1_554  S
N1509      O1513   1.261       .  A
N1509      O3058   1.260   1_554  A
H1510      C3047   1.084       .  S
N1512      O1516   1.262       .  A
N1512      O1515   1.262       .  A
O1514      N3053   1.260       .  A
C1517      C1518   1.412       .  A
C1517      C1522   1.395       .  A
C1517      H1524   1.083       .  S
C1518      C1519   1.417       .  A
C1519      C1520   1.387       .  A
C1519      N1526   1.425       .  S
C1520      C1521   1.396       .  A
C1520      H1525   1.081       .  S
C1521      C1522   1.407       .  A
C1522      N1523   1.429       .  S
N1523      O1527   1.261       .  A
N1523      O1528   1.262       .  A
N1526      O1530   1.260       .  A
N1526      O1529   1.258       .  A
C1531      C1532   1.404       .  A
C1531      C1536   1.401       .  A
C1531      H1538   1.084       .  S
C1532      C1533   1.416       .  A
C1533      C1534   1.381       .  A
C1533      N1540   1.427       .  S
C1534      C1535   1.382       .  A
C1534      H1539   1.085   1_545  S
C1535      C1536   1.407       .  A
C1536      N1537   1.428       .  S
N1537      O3085   1.258       .  A
N1537      O1542   1.261       .  A
N1540      O1544   1.262       .  A
N1540      O1543   1.262       .  A
O1541      N3081   1.259       .  A
Zr1545     O1546   2.438       .  S
Zr1545     O1547   2.447       .  S
Zr1545     O1548   2.492       .  S
Zr1545     O1551   2.494       .  S
Zr1545     O1553   2.387       .  S
Zr1545     O1555   2.418       .  S
Zr1545     O1556   2.424       .  S
O1546      H1602   0.990       .  S
O1546      H1610   0.991       .  S
O1547      C1567   1.285       .  A
O1548      C1569   1.297       .  A
O1549     Zr1559   2.500       .  S
O1549      C1568   1.297       .  A
O1550     Zr1558   2.407       .  S
O1550      C1569   1.277       .  A
O1552      C1567   1.278       .  A
O1553     Zr1558   2.378       .  S
O1554     Zr1559   2.388       .  S
O1554     Zr1560   2.357       .  S
O1554      H1589   0.965       .  S
O1555     Zr1558   2.381       .  S
O1555     Zr1575   2.405       .  S
O1555      H1592   0.966       .  S
O1556     Zr1575   2.411       .  S
Zr1557     O1582   2.437       .  S
Zr1557     O1576   2.475       .  S
Zr1557     O1584   2.493       .  S
Zr1557     O1572   2.559       .  S
Zr1557     O1563   2.436       .  S
Zr1557     O1564   2.419       .  S
Zr1557     O1566   2.429       .  S
Zr1558     O1577   2.439       .  S
Zr1558     O1570   2.438       .  S
Zr1558     O1571   2.380       .  S
Zr1558     O1565   2.384       .  S
Zr1559     O1561   2.435       .  S
Zr1559     O1583   2.440       .  S
Zr1559     O1585   2.417       .  S
Zr1559     O1563   2.416       .  S
Zr1559     O1566   2.425       .  S
Zr1560     O1586   2.432       .  S
Zr1560     O1587   2.442       .  S
Zr1560     O1563   2.364       .  S
Zr1560     O1564   2.360       .  S
O1561      H1598   0.990       .  S
O1562      H1607   0.989   1_554  S
O1564      H1590   0.961       .  S
O1565     Zr1575   2.378       .  S
O1566      H1591   0.967       .  S
C1567      C3076   1.468       .  S
C1569      C1635   1.484       .  S
O1570      H1606   0.991       .  S
O1571      C1573   1.274   1_545  A
C1573      C2248   1.502       .  S
O1574     Zr1575   2.437       .  S
O1574      H1603   0.990       .  S
Zr1575     O1578   2.436       .  S
O1576      C1581   1.286       .  A
O1577      H1594   0.990       .  S
O1577      H1609   0.990       .  S
O1578      H1595   0.990       .  S
O1579      H1608   0.989       .  S
O1580      C1581   1.288       .  A
C1581      C2505   1.494       .  S
O1582      H1601   0.990       .  S
O1582      H1605   0.990       .  S
O1583      H1597   0.990       .  S
O1583      H1604   0.990       .  S
O1584      C1588   1.298       .  A
O1585      C1588   1.282       .  A
O1586      H1596   0.990       .  S
O1587      H1600   0.990       .  S
C1588      C1654   1.484       .  S
Zr1611     O1612   2.444       .  S
Zr1611     O1613   2.587       .  S
Zr1611     O1614   2.487       .  S
Zr1611     O1617   2.475       .  S
Zr1611     O1619   2.376       .  S
Zr1611     O1620   2.372       .  S
Zr1611     O1621   2.444       .  S
Zr1611     O1622   2.369       .  S
O1612      H1668   0.991       .  S
O1612      H1676   0.991       .  S
O1613      C1633   1.312   1_545  A
O1614      C1635   1.293       .  A
O1615     Zr1625   2.481       .  S
O1615      C1634   1.295       .  A
O1616     Zr1624   2.451       .  S
O1616      C1635   1.283       .  A
O1617      C1634   1.284       .  A
O1618     Zr1626   2.330       .  S
O1618      C1633   1.259   1_545  A
O1619     Zr1624   2.409       .  S
O1619     Zr1626   2.404       .  S
O1620     Zr1625   2.387       .  S
O1620     Zr1626   2.405       .  S
O1620      H1655   0.966       .  S
O1621     Zr1624   2.406       .  S
O1621     Zr1641   2.385       .  S
O1621      H1658   0.960       .  S
O1622     Zr1625   2.288       .  S
O1622     Zr1641   2.373       .  S
Zr1623     O1648   2.441       .  S
Zr1623     O1642   2.458       .  S
Zr1623     O1650   2.479       .  S
Zr1623     O1638   2.414       .  S
Zr1623     O1629   2.375       .  S
Zr1623     O1630   2.437       .  S
Zr1623     O1631   2.383       .  S
Zr1623     O1632   2.400       .  S
Zr1624     O1643   2.443       .  S
Zr1624     O1636   2.433       .  S
Zr1624     O1637   2.430       .  S
Zr1624     O1630   2.416       .  S
Zr1624     O1631   2.387       .  S
Zr1625     O1627   2.437       .  S
Zr1625     O1649   2.438       .  S
Zr1625     O1651   2.468       .  S
Zr1625     O1629   2.376       .  S
Zr1625     O1632   2.424       .  S
Zr1626     O1652   2.435       .  S
Zr1626     O1653   2.436       .  S
Zr1626     O1628   2.443       .  S
Zr1626     O1629   2.346       .  S
Zr1626     O1630   2.364       .  S
O1627      H1664   0.990       .  S
O1628      H1659   0.990   1_545  S
O1628      H1673   0.990       .  S
O1630      H1656   0.964       .  S
O1631     Zr1641   2.332       .  S
O1632     Zr1641   2.376       .  S
O1632      H1657   0.965       .  S
C1633      C2314   1.501       .  S
C1634      C2571   1.516       .  S
O1636      H1672   0.990       .  S
O1637      C1639   1.278       .  A
O1638      C1639   1.284       .  A
C1639      C3062   1.478       .  S
O1640     Zr1641   2.437       .  S
O1640      H1669   0.990       .  S
Zr1641     O1644   2.438       .  S
Zr1641     O1645   2.439       .  S
Zr1641     O1646   2.542       .  S
O1642      C1647   1.284       .  A
O1643      H1660   0.990       .  S
O1643      H1675   0.990       .  S
O1644      H1661   0.990       .  S
O1645      H1665   0.990       .  S
O1645      H1674   0.990       .  S
O1646      C1647   1.300       .  A
C1647      C1765   1.530       .  S
O1648      H1667   0.991       .  S
O1648      H1671   0.990       .  S
O1649      H1663   0.990       .  S
O1649      H1670   0.990       .  S
O1650      C1654   1.295       .  A
O1651      C1654   1.290       .  A
O1652      H1662   0.991       .  S
O1653      H1666   0.990       .  S
Zr1677     O1679   2.469   1_554  S
Zr1677     O1680   2.422   1_554  S
Zr1677     O1685   2.384   1_554  S
Zr1677     O1686   2.394   1_554  S
Zr1677     O1687   2.423   1_554  S
Zr1677     O1688   2.382       .  S
O1678      H1734   0.990       .  S
O1678      H1742   0.991       .  S
O1679      C1699   1.286       .  A
O1680      C1701   1.280       .  A
O1681      C1700   1.294       .  A
O1682     Zr1690   2.457       .  S
O1682      C1701   1.292       .  A
O1683      C1700   1.292       .  A
O1684     Zr1692   2.513       .  S
O1684      C1699   1.296       .  A
O1685     Zr1690   2.398       .  S
O1685     Zr1692   2.361       .  S
O1686     Zr1691   2.414       .  S
O1686     Zr1692   2.372       .  S
O1686      H1721   0.965   1_556  S
O1687     Zr1690   2.405       .  S
O1687     Zr1707   2.370       .  S
O1687      H1724   0.955       .  S
O1688     Zr1691   2.354   1_554  S
O1688     Zr1707   2.348   1_554  S
Zr1689     O1714   2.446       .  S
Zr1689     O1708   2.587       .  S
Zr1689     O1716   2.453       .  S
Zr1689     O1704   2.483       .  S
Zr1689     O1696   2.445       .  S
Zr1689     O1697   2.374       .  S
Zr1689     O1698   2.385       .  S
Zr1689     O1695   2.372       .  S
Zr1690     O1709   2.435       .  S
Zr1690     O1702   2.436       .  S
Zr1690     O1703   2.463       .  S
Zr1690     O1696   2.408       .  S
Zr1690     O1697   2.414       .  S
Zr1691     O1717   2.467       .  S
Zr1691     O1698   2.391       .  S
Zr1691     O1695   2.289       .  S
Zr1692     O1718   2.439       .  S
Zr1692     O1719   2.437       .  S
Zr1692     O1694   2.441       .  S
Zr1692     O1696   2.387       .  S
Zr1692     O1695   2.357       .  S
O1693      H1730   0.990       .  S
O1694      H1725   0.990       .  S
O1694      H1739   0.990       .  S
O1696      H1722   0.960       .  S
O1697     Zr1707   2.402       .  S
O1698     Zr1707   2.393       .  S
O1698      H1723   0.966       .  S
C1700      C1771   1.491       .  S
C1701      C3051   1.458       .  S
O1702      H1738   0.990       .  S
O1703      C1705   1.291       .  A
O1704      C1705   1.292       .  A
C1705      C1766   1.488       .  S
Zr1707     O1710   2.436       .  S
Zr1707     O1711   2.437   1_556  S
Zr1707     O1712   2.352       .  S
O1708      C1713   1.308       .  A
O1709      H1726   0.990       .  S
O1709      H1741   0.990       .  S
O1710      H1727   0.990       .  S
O1711      H1731   0.990       .  S
O1711      H1740   0.990       .  S
O1712      C1713   1.262       .  A
C1713      C2644   1.515       .  S
O1714      H1733   0.991       .  S
O1714      H1737   0.991       .  S
O1715      H1729   0.990       .  S
O1715      H1736   0.990       .  S
O1716      C1720   1.280       .  A
O1717      C1720   1.295       .  A
O1718      H1728   0.990       .  S
O1719      H1732   0.990       .  S
C1720      C2359   1.501       .  S
Zr1743     O1744   2.440       .  S
Zr1743     O1745   2.515       .  S
Zr1743     O1746   2.441       .  S
Zr1743     O1749   2.479       .  S
Zr1743     O1751   2.395       .  S
Zr1743     O1752   2.412       .  S
Zr1743     O1753   2.456       .  S
Zr1743     O1754   2.391       .  S
O1744      H1800   0.990       .  S
O1744      H1808   0.990       .  S
O1745      C1765   1.296       .  A
O1746      C1767   1.278       .  A
O1747     Zr1757   2.485       .  S
O1747      C1766   1.296       .  A
O1748     Zr1756   2.452       .  S
O1748      C1767   1.282       .  A
O1749      C1766   1.294       .  A
O1750     Zr1758   2.480       .  S
O1750      C1765   1.290       .  A
O1751     Zr1756   2.415       .  S
O1751     Zr1758   2.377       .  S
O1752     Zr1757   2.422       .  S
O1752     Zr1758   2.374       .  S
O1752      H1787   0.966       .  S
O1753     Zr1756   2.408       .  S
O1753     Zr1773   2.369       .  S
O1753      H1790   0.962       .  S
O1754     Zr1757   2.353       .  S
O1754     Zr1773   2.344       .  S
Zr1755     O1780   2.445       .  S
Zr1755     O1774   2.571       .  S
Zr1755     O1782   2.449       .  S
Zr1755     O1770   2.489       .  S
Zr1755     O1762   2.437       .  S
Zr1755     O1763   2.380       .  S
Zr1755     O1764   2.389       .  S
Zr1755     O1761   2.365       .  S
Zr1756     O1775   2.434       .  S
Zr1756     O1768   2.435       .  S
Zr1756     O1769   2.461       .  S
Zr1756     O1762   2.408       .  S
Zr1756     O1763   2.416       .  S
Zr1757     O1759   2.436       .  S
Zr1757     O1781   2.436       .  S
Zr1757     O1783   2.488       .  S
Zr1757     O1764   2.384       .  S
Zr1757     O1761   2.288       .  S
Zr1758     O1784   2.437       .  S
Zr1758     O1785   2.436       .  S
Zr1758     O1760   2.440       .  S
Zr1758     O1762   2.383       .  S
Zr1758     O1761   2.342       .  S
O1759      H1796   0.989       .  S
O1760      H1791   0.990       .  S
O1760      H1805   0.991       .  S
O1762      H1788   0.960       .  S
O1763     Zr1773   2.409       .  S
O1764     Zr1773   2.386       .  S
O1764      H1789   0.966       .  S
C1767      C3034   1.495       .  S
O1768      H1804   0.991       .  S
O1769      C1771   1.290       .  A
O1770      C1771   1.293       .  A
O1772     Zr1773   2.432       .  S
O1772      H1801   0.991       .  S
Zr1773     O1776   2.439       .  S
Zr1773     O1777   2.439       .  S
Zr1773     O1778   2.351       .  S
O1774      C1779   1.305       .  A
O1775      H1792   0.989       .  S
O1775      H1807   0.990       .  S
O1776      H1793   0.990       .  S
O1777      H1797   0.989       .  S
O1777      H1806   0.990       .  S
O1778      C1779   1.262       .  A
C1779      C2690   1.505       .  S
O1780      H1799   0.991       .  S
O1780      H1803   0.991       .  S
O1781      H1795   0.989       .  S
O1781      H1802   0.991       .  S
O1782      C1786   1.279       .  A
O1783      C1786   1.300       .  A
O1784      H1794   0.990       .  S
O1785      H1798   0.990       .  S
C1786      C2439   1.507       .  S
Zr1809     O1810   2.438       .  S
Zr1809     O1811   2.435       .  S
Zr1809     O1812   2.470       .  S
Zr1809     O1815   2.417       .  S
Zr1809     O1817   2.385       .  S
Zr1809     O1818   2.391       .  S
Zr1809     O1819   2.394   1_565  S
Zr1809     O1820   2.412       .  S
O1810      H1866   0.990       .  S
O1810      H1874   0.990   1_565  S
O1811      C1831   1.285       .  A
O1812      C1833   1.291       .  A
O1813      C1832   1.282       .  A
O1814     Zr1822   2.368       .  S
O1814      C1833   1.269       .  A
O1815      C1832   1.283       .  A
O1816     Zr1824   2.432       .  S
O1816      C1831   1.284       .  A
O1817     Zr1822   2.384       .  S
O1817     Zr1824   2.380       .  S
O1818     Zr1824   2.373       .  S
O1818      H1853   0.958       .  S
O1819     Zr1822   2.404   1_545  S
O1819     Zr1839   2.385       .  S
O1819      H1856   0.966       .  S
O1820     Zr1839   2.382   1_565  S
Zr1821     O1846   2.438       .  S
Zr1821     O1840   2.404   1_565  S
Zr1821     O1848   2.455       .  S
Zr1821     O1827   2.391       .  S
Zr1822     O1841   2.444   1_565  S
Zr1822     O1834   2.437       .  S
Zr1822     O1835   2.390   1_565  S
Zr1822     O1828   2.384       .  S
Zr1822     O1829   2.371   1_565  S
Zr1823     O1825   2.435       .  S
Zr1823     O1847   2.435       .  S
Zr1823     O1849   2.389       .  S
Zr1823     O1827   2.392       .  S
Zr1824     O1826   2.439       .  S
Zr1824     O1828   2.407       .  S
O1825      H1862   0.990       .  S
O1826      H1857   0.990       .  S
O1826      H1871   0.990       .  S
O1828      H1854   0.966       .  S
O1829     Zr1839   2.368       .  S
O1830     Zr1839   2.375       .  S
C1831      C3006   1.479       .  S
C1832      C3020   1.474       .  S
C1833      C1918   1.461       .  S
O1834      H1870   0.990       .  S
O1835      C1837   1.272       .  A
O1836      C1837   1.286       .  A
C1837      C3079   1.455       .  S
O1838     Zr1839   2.435       .  S
O1838      H1867   0.990       .  S
Zr1839     O1842   2.433       .  S
Zr1839     O1843   2.436       .  S
Zr1839     O1844   2.394       .  S
O1841      H1858   0.990       .  S
O1841      H1873   0.991       .  S
O1842      H1859   0.990       .  S
O1843      H1863   0.990       .  S
O1843      H1872   0.990       .  S
O1844      C1845   1.278       .  A
C1845      C3048   1.470       .  S
O1846      H1865   0.990       .  S
O1846      H1869   0.990       .  S
O1847      H1861   0.988       .  S
O1847      H1868   0.989       .  S
O1848      C1852   1.289       .  A
O1849      C1852   1.277       .  A
O1850      H1860   0.990       .  S
O1851      H1864   0.990       .  S
C1852      C1899   1.466       .  S
Zr1875     O1876   2.437       .  S
Zr1875     O1877   2.414       .  S
Zr1875     O1878   2.429       .  S
Zr1875     O1881   2.428       .  S
Zr1875     O1883   2.390       .  S
Zr1875     O1884   2.392       .  S
Zr1875     O1885   2.404   1_565  S
Zr1875     O1886   2.409       .  S
O1876      H1932   0.989       .  S
O1876      H1940   0.990       .  S
O1877      C1897   1.275       .  A
O1878      C1899   1.286       .  A
O1879     Zr1889   2.388       .  S
O1879      C1898   1.276       .  A
O1880     Zr1888   2.427   1_565  S
O1880      C1899   1.280       .  A
O1881      C1898   1.282       .  A
O1882     Zr1890   2.452       .  S
O1882      C1897   1.289       .  A
O1883     Zr1888   2.389   1_565  S
O1883     Zr1890   2.377       .  S
O1884     Zr1889   2.373       .  S
O1884     Zr1890   2.371       .  S
O1884      H1919   0.963       .  S
O1885     Zr1888   2.411       .  S
O1885     Zr1905   2.400       .  S
O1885      H1922   0.966       .  S
O1886     Zr1889   2.383       .  S
O1886     Zr1905   2.405   1_565  S
Zr1887     O1912   2.440       .  S
Zr1887     O1906   2.423       .  S
Zr1887     O1914   2.439       .  S
Zr1887     O1902   2.410       .  S
Zr1887     O1893   2.380   1_545  S
Zr1887     O1894   2.421   1_545  S
Zr1887     O1895   2.371       .  S
Zr1887     O1896   2.385       .  S
Zr1888     O1907   2.437       .  S
Zr1888     O1900   2.435   1_545  S
Zr1888     O1901   2.419       .  S
Zr1888     O1894   2.404   1_545  S
Zr1888     O1895   2.376       .  S
Zr1889     O1891   2.434   1_565  S
Zr1889     O1913   2.443       .  S
Zr1889     O1915   2.404       .  S
Zr1889     O1893   2.394       .  S
Zr1889     O1896   2.374   1_565  S
Zr1890     O1916   2.436       .  S
Zr1890     O1917   2.439       .  S
Zr1890     O1892   2.436       .  S
Zr1890     O1893   2.404       .  S
Zr1890     O1894   2.403       .  S
O1891      H1928   0.990   1_545  S
O1892      H1923   0.990       .  S
O1892      H1937   0.990       .  S
O1894      H1920   0.966       .  S
O1895     Zr1905   2.372       .  S
O1896     Zr1905   2.397       .  S
O1896      H1921   0.967       .  S
C1897      C2978   1.494       .  S
C1898      C2992   1.459       .  S
O1900      H1936   0.990       .  S
O1901      C1903   1.280       .  A
O1902      C1903   1.282       .  A
C1903      C3065   1.477       .  S
O1904     Zr1905   2.436       .  S
O1904      H1933   0.990       .  S
Zr1905     O1908   2.434       .  S
Zr1905     O1909   2.435       .  S
Zr1905     O1910   2.431       .  S
O1906      C1911   1.276       .  A
O1907      H1924   0.990       .  S
O1907      H1939   0.990       .  S
O1908      H1925   0.990       .  S
O1909      H1929   0.990       .  S
O1909      H1938   0.990       .  S
O1910      C1911   1.277       .  A
C1911      C3037   1.484       .  S
O1912      H1931   0.990       .  S
O1912      H1935   0.989       .  S
O1913      H1927   0.990       .  S
O1913      H1934   0.991       .  S
O1914      C1918   1.289   1_545  A
O1915      C1918   1.273       .  A
O1916      H1926   0.990       .  S
O1917      H1930   0.991       .  S
Zr1941     O1942   2.447       .  S
Zr1941     O1943   2.603       .  S
Zr1941     O1944   2.497       .  S
Zr1941     O1947   2.460       .  S
Zr1941     O1949   2.385       .  S
Zr1941     O1950   2.378       .  S
Zr1941     O1951   2.451       .  S
Zr1941     O1952   2.367       .  S
O1942      H1998   0.991       .  S
O1942      H2006   0.990       .  S
O1943      C1963   1.316       .  A
O1944      C1965   1.292       .  A
O1945     Zr1955   2.475       .  S
O1945      C1964   1.297       .  A
O1946     Zr1954   2.427       .  S
O1946      C1965   1.279       .  A
O1947      C1964   1.281       .  A
O1948     Zr1956   2.308       .  S
O1948      C1963   1.259       .  A
O1949     Zr1954   2.409       .  S
O1949     Zr1956   2.406       .  S
O1950     Zr1955   2.380       .  S
O1950     Zr1956   2.404       .  S
O1950      H1985   0.965       .  S
O1951     Zr1954   2.396       .  S
O1951     Zr1971   2.403       .  S
O1951      H1988   0.961       .  S
O1952     Zr1955   2.276       .  S
O1952     Zr1971   2.362       .  S
Zr1953     O1978   2.438   1_556  S
Zr1953     O1972   2.456       .  S
Zr1953     O1968   2.467       .  S
Zr1953     O1959   2.372       .  S
Zr1953     O1960   2.433       .  S
Zr1953     O1961   2.394       .  S
Zr1953     O1962   2.408       .  S
Zr1954     O1973   2.440       .  S
Zr1954     O1966   2.434       .  S
Zr1954     O1967   2.416       .  S
Zr1954     O1960   2.410       .  S
Zr1954     O1961   2.401       .  S
Zr1955     O1957   2.437   1_556  S
Zr1955     O1979   2.439   1_556  S
Zr1955     O1959   2.376       .  S
Zr1955     O1962   2.414       .  S
Zr1956     O1982   2.436   1_556  S
Zr1956     O1983   2.436   1_556  S
Zr1956     O1958   2.438       .  S
Zr1956     O1959   2.337       .  S
Zr1956     O1960   2.348       .  S
O1957      H1994   0.990       .  S
O1958      H1989   0.990       .  S
O1958      H2003   0.990       .  S
O1960      H1986   0.963       .  S
O1961     Zr1971   2.344       .  S
O1962     Zr1971   2.374       .  S
O1962      H1987   0.966   1_556  S
C1963      C2360   1.506       .  S
C1964      C2637   1.509       .  S
C1965      C2050   1.485       .  S
O1966      H2002   0.990       .  S
O1967      C1969   1.270       .  A
O1968      C1969   1.291       .  A
C1969      C3009   1.492       .  S
O1970     Zr1971   2.438       .  S
O1970      H1999   0.990       .  S
Zr1971     O1974   2.437       .  S
Zr1971     O1975   2.445       .  S
Zr1971     O1976   2.513       .  S
O1972      C1977   1.283       .  A
O1973      H1990   0.990       .  S
O1973      H2005   0.990       .  S
O1974      H1991   0.990       .  S
O1975      H1995   0.990       .  S
O1975      H2004   0.990       .  S
O1976      C1977   1.297       .  A
C1977      C2095   1.516       .  S
O1978      H1997   0.990       .  S
O1978      H2001   0.990       .  S
O1979      H2000   0.990       .  S
O1980      C1984   1.301       .  A
O1981      C1984   1.295       .  A
O1982      H1992   0.990       .  S
O1983      H1996   0.990       .  S
C1984      C2031   1.498       .  S
Zr2007     O2008   2.444       .  S
Zr2007     O2009   2.572       .  S
Zr2007     O2010   2.496       .  S
Zr2007     O2013   2.458       .  S
Zr2007     O2015   2.379       .  S
Zr2007     O2016   2.387       .  S
Zr2007     O2017   2.437       .  S
Zr2007     O2018   2.370       .  S
O2008      H2064   0.991       .  S
O2008      H2072   0.991       .  S
O2009      C2029   1.305       .  A
O2010      C2031   1.295       .  A
O2011     Zr2021   2.488       .  S
O2011      C2030   1.299       .  A
O2012     Zr2020   2.476       .  S
O2012      C2031   1.290       .  A
O2013      C2030   1.281       .  A
O2014     Zr2022   2.330       .  S
O2014      C2029   1.253       .  A
O2015     Zr2020   2.414       .  S
O2015     Zr2022   2.420       .  S
O2016     Zr2021   2.377       .  S
O2016     Zr2022   2.397       .  S
O2016      H2051   0.966       .  S
O2017     Zr2020   2.406       .  S
O2017     Zr2037   2.379       .  S
O2017      H2054   0.948       .  S
O2018     Zr2021   2.290       .  S
O2018     Zr2037   2.351       .  S
Zr2019     O2044   2.437       .  S
Zr2019     O2038   2.492       .  S
Zr2019     O2046   2.478       .  S
Zr2019     O2034   2.461       .  S
Zr2019     O2025   2.379       .  S
Zr2019     O2026   2.447       .  S
Zr2019     O2027   2.399       .  S
Zr2019     O2028   2.411       .  S
Zr2020     O2039   2.444       .  S
Zr2020     O2032   2.436       .  S
Zr2020     O2033   2.427       .  S
Zr2020     O2026   2.420       .  S
Zr2020     O2027   2.426       .  S
Zr2021     O2023   2.435       .  S
Zr2021     O2045   2.439       .  S
Zr2021     O2047   2.482       .  S
Zr2021     O2025   2.359       .  S
Zr2021     O2028   2.421       .  S
Zr2022     O2048   2.439       .  S
Zr2022     O2049   2.435       .  S
Zr2022     O2024   2.443       .  S
Zr2022     O2025   2.335       .  S
Zr2022     O2026   2.370       .  S
O2023      H2060   0.990       .  S
O2024      H2055   0.990       .  S
O2024      H2069   0.990       .  S
O2026      H2052   0.963       .  S
O2027     Zr2037   2.375       .  S
O2028     Zr2037   2.372       .  S
O2028      H2053   0.966       .  S
C2029      C2446   1.493       .  S
C2030      C2689   1.511       .  S
O2032      H2068   0.990       .  S
O2033      C2035   1.276       .  A
O2034      C2035   1.281       .  A
C2035      C2981   1.499       .  S
O2036     Zr2037   2.437       .  S
O2036      H2065   0.990       .  S
Zr2037     O2040   2.439       .  S
Zr2037     O2041   2.439       .  S
Zr2037     O2042   2.479       .  S
O2038      C2043   1.292       .  A
O2039      H2056   0.990       .  S
O2039      H2071   0.990       .  S
O2040      H2057   0.990       .  S
O2041      H2061   0.990       .  S
O2041      H2070   0.989       .  S
O2042      C2043   1.290       .  A
C2043      C2161   1.520       .  S
O2044      H2063   0.990       .  S
O2044      H2067   0.990       .  S
O2045      H2059   0.990       .  S
O2045      H2066   0.990       .  S
O2046      C2050   1.295       .  A
O2047      C2050   1.293       .  A
O2048      H2058   0.991       .  S
O2049      H2062   0.990       .  S
Zr2073     O2074   2.439       .  S
Zr2073     O2075   2.454       .  S
Zr2073     O2076   2.412       .  S
Zr2073     O2079   2.472       .  S
Zr2073     O2081   2.388       .  S
Zr2073     O2082   2.391       .  S
Zr2073     O2083   2.440       .  S
Zr2073     O2084   2.380       .  S
O2074      H2130   0.990       .  S
O2074      H2138   0.988       .  S
O2075      C2095   1.282       .  A
O2076      C2097   1.282       .  A
O2077     Zr2087   2.470       .  S
O2077      C2096   1.292       .  A
O2078     Zr2086   2.419       .  S
O2079      C2096   1.292       .  A
O2080      C2095   1.294       .  A
O2082     Zr2087   2.414       .  S
O2082      H2117   0.965       .  S
O2083     Zr2103   2.377       .  S
O2083      H2120   0.962       .  S
O2084     Zr2087   2.364       .  S
O2084     Zr2103   2.350       .  S
Zr2085     O2110   2.447       .  S
Zr2085     O2104   2.560       .  S
Zr2085     O2112   2.433       .  S
Zr2085     O2100   2.460       .  S
Zr2085     O2092   2.435       .  S
Zr2085     O2093   2.372       .  S
Zr2086     O2105   2.434       .  S
Zr2086     O2098   2.436       .  S
Zr2086     O2099   2.439       .  S
Zr2086     O2092   2.403       .  S
Zr2086     O2093   2.405       .  S
Zr2087     O2089   2.434       .  S
Zr2087     O2111   2.437       .  S
Zr2087     O2113   2.475       .  S
Zr2087     O2094   2.384       .  S
Zr2087     O2091   2.282       .  S
Zr2088     O2115   2.436       .  S
Zr2088     O2090   2.440       .  S
Zr2088     O2092   2.392       .  S
O2089      H2126   0.991       .  S
O2090      H2121   0.990       .  S
O2090      H2135   0.990       .  S
O2092      H2118   0.961       .  S
O2094     Zr2103   2.403       .  S
O2094      H2119   0.966       .  S
C2096      C2167   1.479       .  S
C2097      C3023   1.473       .  S
O2098      H2134   0.990       .  S
O2099      C2101   1.285       .  A
O2100      C2101   1.285       .  A
C2101      C2162   1.474       .  S
O2102     Zr2103   2.438       .  S
O2102      H2131   0.990       .  S
Zr2103     O2107   2.438       .  S
O2104      C2109   1.302       .  A
O2105      H2122   0.990       .  S
O2105      H2137   0.990       .  S
O2107      H2127   0.990       .  S
O2107      H2136   0.990       .  S
O2108      C2109   1.260       .  A
C2109      C2512   1.498   1_565  S
O2110      H2129   0.991       .  S
O2110      H2133   0.991       .  S
O2111      H2125   0.990       .  S
O2111      H2132   0.990       .  S
O2113      C2116   1.297   1_455  A
O2114      H2124   0.990       .  S
O2115      H2128   0.990       .  S
Zr2139     O2140   2.443       .  S
Zr2139     O2141   2.445       .  S
Zr2139     O2142   2.397       .  S
Zr2139     O2145   2.445       .  S
Zr2139     O2147   2.375       .  S
Zr2139     O2148   2.386       .  S
Zr2139     O2149   2.416       .  S
Zr2139     O2150   2.376       .  S
O2140      H2196   0.991       .  S
O2140      H2204   0.990       .  S
O2141      C2161   1.280       .  A
O2142      C2163   1.280       .  A
O2143     Zr2153   2.475       .  S
O2143      C2162   1.293       .  A
O2144     Zr2152   2.421       .  S
O2144      C2163   1.282       .  A
O2145      C2162   1.287       .  A
O2146     Zr2154   2.525       .  S
O2146      C2161   1.296       .  A
O2147     Zr2152   2.395       .  S
O2147     Zr2154   2.345       .  S
O2148     Zr2153   2.413       .  S
O2148     Zr2154   2.372       .  S
O2148      H2183   0.966       .  S
O2149     Zr2152   2.411       .  S
O2149     Zr2169   2.379       .  S
O2149      H2186   0.964       .  S
O2150     Zr2153   2.367       .  S
O2150     Zr2169   2.348       .  S
Zr2151     O2176   2.447       .  S
Zr2151     O2170   2.566       .  S
Zr2151     O2178   2.449       .  S
Zr2151     O2166   2.469       .  S
Zr2151     O2158   2.432       .  S
Zr2151     O2159   2.377       .  S
Zr2151     O2160   2.382       .  S
Zr2151     O2157   2.364       .  S
Zr2152     O2171   2.434       .  S
Zr2152     O2164   2.434       .  S
Zr2152     O2165   2.446       .  S
Zr2152     O2158   2.404       .  S
Zr2152     O2159   2.405       .  S
Zr2153     O2155   2.436       .  S
Zr2153     O2177   2.437       .  S
Zr2153     O2179   2.466       .  S
Zr2153     O2160   2.377       .  S
Zr2153     O2157   2.294       .  S
Zr2154     O2180   2.438       .  S
Zr2154     O2181   2.436       .  S
Zr2154     O2156   2.438       .  S
Zr2154     O2158   2.381       .  S
Zr2154     O2157   2.359       .  S
O2155      H2192   0.989       .  S
O2156      H2187   0.990       .  S
O2156      H2201   0.990       .  S
O2158      H2184   0.961       .  S
O2159     Zr2169   2.405       .  S
O2160     Zr2169   2.399       .  S
O2160      H2185   0.966       .  S
C2163      C2995   1.469       .  S
O2164      H2200   0.990       .  S
O2165      C2167   1.287       .  A
O2166      C2167   1.289       .  A
O2168     Zr2169   2.437       .  S
O2168      H2197   0.990       .  S
Zr2169     O2172   2.437       .  S
Zr2169     O2173   2.440       .  S
Zr2169     O2174   2.351       .  S
O2170      C2175   1.303       .  A
O2171      H2188   0.990       .  S
O2171      H2203   0.990       .  S
O2172      H2189   0.989       .  S
O2173      H2193   0.990       .  S
O2173      H2202   0.990       .  S
O2174      C2175   1.259       .  A
C2175      C2578   1.500   1_565  S
O2176      H2195   0.991       .  S
O2176      H2199   0.991       .  S
O2177      H2191   0.989       .  S
O2177      H2198   0.990       .  S
O2178      C2182   1.280   1_455  A
O2179      C2182   1.295   1_455  A
O2180      H2190   0.990       .  S
O2181      H2194   0.990       .  S
C2182      C2307   1.497       .  S
Zr2205     O2206   2.441       .  S
Zr2205     O2207   2.472       .  S
Zr2205     O2208   2.437       .  S
Zr2205     O2211   2.459       .  S
Zr2205     O2213   2.379       .  S
Zr2205     O2214   2.401       .  S
Zr2205     O2215   2.417       .  S
Zr2205     O2216   2.380       .  S
O2206      H2262   0.990       .  S
O2206      H2270   0.991       .  S
O2207      C2227   1.287       .  A
O2208      C2229   1.287       .  A
O2209     Zr2219   2.480       .  S
O2209      C2228   1.294       .  A
O2210     Zr2218   2.447       .  S
O2211      C2228   1.291       .  A
O2212      C2227   1.296       .  A
O2214     Zr2219   2.420       .  S
O2214      H2249   0.966       .  S
O2215     Zr2235   2.373       .  S
O2215      H2252   0.976       .  S
O2216     Zr2219   2.368       .  S
O2216     Zr2235   2.335       .  S
Zr2217     O2242   2.447       .  S
Zr2217     O2236   2.587       .  S
Zr2217     O2244   2.435       .  S
Zr2217     O2232   2.482       .  S
Zr2217     O2224   2.435       .  S
Zr2217     O2225   2.372       .  S
Zr2218     O2237   2.435       .  S
Zr2218     O2230   2.436       .  S
Zr2218     O2231   2.461       .  S
Zr2218     O2224   2.401       .  S
Zr2218     O2225   2.416       .  S
Zr2219     O2221   2.435       .  S
Zr2219     O2243   2.436       .  S
Zr2219     O2245   2.494       .  S
Zr2219     O2226   2.375       .  S
Zr2219     O2223   2.284       .  S
Zr2220     O2247   2.438       .  S
Zr2220     O2222   2.438       .  S
Zr2220     O2224   2.391       .  S
O2221      H2258   0.990       .  S
O2222      H2253   0.990       .  S
O2222      H2267   0.990       .  S
O2224      H2250   0.961       .  S
O2226     Zr2235   2.404       .  S
O2226      H2251   0.966       .  S
C2227      C2373   1.524       .  S
C2228      C2299   1.478       .  S
C2229      C2967   1.479       .  S
O2230      H2266   0.990       .  S
O2231      C2233   1.290       .  A
O2232      C2233   1.292       .  A
C2233      C2294   1.492       .  S
O2234     Zr2235   2.437       .  S
O2234      H2263   0.990       .  S
Zr2235     O2238   2.437       .  S
Zr2235     O2239   2.438       .  S
O2236      C2241   1.310       .  A
O2237      H2254   0.990       .  S
O2237      H2269   0.990       .  S
O2238      H2255   0.990       .  S
O2239      H2259   0.990       .  S
O2239      H2268   0.990       .  S
O2240      C2241   1.254       .  A
O2242      H2261   0.991       .  S
O2242      H2265   0.991       .  S
O2243      H2257   0.990       .  S
O2243      H2264   0.990       .  S
O2245      C2248   1.300       .  A
O2246      H2256   0.990       .  S
O2247      H2260   0.990       .  S
Zr2271     O2272   2.440       .  S
Zr2271     O2273   2.471       .  S
Zr2271     O2274   2.476       .  S
Zr2271     O2277   2.484       .  S
Zr2271     O2279   2.385       .  S
Zr2271     O2280   2.411       .  S
Zr2271     O2281   2.415       .  S
Zr2271     O2282   2.388       .  S
O2272      H2328   0.990       .  S
O2272      H2336   0.991       .  S
O2273      C2293   1.287       .  A
O2274      C2295   1.294       .  A
O2275     Zr2285   2.478       .  S
O2275      C2294   1.295       .  A
O2276     Zr2284   2.405       .  S
O2276      C2295   1.279       .  A
O2277      C2294   1.296       .  A
O2278     Zr2286   2.495       .  S
O2278      C2293   1.293       .  A
O2279     Zr2284   2.404       .  S
O2279     Zr2286   2.365       .  S
O2280     Zr2285   2.418       .  S
O2280     Zr2286   2.366       .  S
O2280      H2315   0.966       .  S
O2281     Zr2284   2.407       .  S
O2281     Zr2301   2.368       .  S
O2281      H2318   0.964       .  S
O2282     Zr2285   2.380       .  S
O2282     Zr2301   2.345       .  S
Zr2283     O2308   2.447       .  S
Zr2283     O2302   2.573       .  S
Zr2283     O2310   2.425       .  S
Zr2283     O2298   2.471       .  S
Zr2283     O2290   2.436       .  S
Zr2283     O2291   2.367       .  S
Zr2283     O2292   2.381       .  S
Zr2283     O2289   2.365       .  S
Zr2284     O2303   2.436       .  S
Zr2284     O2296   2.435       .  S
Zr2284     O2297   2.438       .  S
Zr2284     O2290   2.394       .  S
Zr2284     O2291   2.403       .  S
Zr2285     O2287   2.434       .  S
Zr2285     O2309   2.436       .  S
Zr2285     O2311   2.501       .  S
Zr2285     O2292   2.377       .  S
Zr2285     O2289   2.282       .  S
Zr2286     O2312   2.438       .  S
Zr2286     O2313   2.438       .  S
Zr2286     O2288   2.439       .  S
Zr2286     O2290   2.391       .  S
Zr2286     O2289   2.348       .  S
O2287      H2324   0.990       .  S
O2288      H2319   0.990       .  S
O2288      H2333   0.990       .  S
O2290      H2316   0.962       .  S
O2291     Zr2301   2.405       .  S
O2292     Zr2301   2.406       .  S
O2292      H2317   0.967       .  S
C2293      C2425   1.515       .  S
C2295      C2953   1.483       .  S
O2296      H2332   0.990       .  S
O2297      C2299   1.286       .  A
O2298      C2299   1.288       .  A
O2300     Zr2301   2.438       .  S
O2300      H2329   0.990       .  S
Zr2301     O2304   2.436       .  S
Zr2301     O2305   2.436       .  S
Zr2301     O2306   2.338       .  S
O2302      C2307   1.306       .  A
O2303      H2320   0.990       .  S
O2303      H2335   0.990       .  S
O2304      H2321   0.989       .  S
O2305      H2325   0.990       .  S
O2305      H2334   0.990       .  S
O2306      C2307   1.258       .  A
O2308      H2327   0.991       .  S
O2308      H2331   0.991       .  S
O2309      H2323   0.990       .  S
O2309      H2330   0.990       .  S
O2310      C2314   1.275       .  A
O2311      C2314   1.302       .  A
O2312      H2322   0.990       .  S
O2313      H2326   0.990       .  S
Zr2337     O2338   2.446       .  S
Zr2337     O2339   2.579       .  S
Zr2337     O2340   2.479       .  S
Zr2337     O2343   2.443       .  S
Zr2337     O2345   2.376       .  S
Zr2337     O2346   2.386       .  S
Zr2337     O2347   2.445       .  S
Zr2337     O2348   2.368       .  S
O2338      H2394   0.991       .  S
O2338      H2402   0.991       .  S
O2339      C2359   1.306       .  A
O2340      C2361   1.289       .  A
O2341     Zr2351   2.487       .  S
O2341      C2360   1.300       .  A
O2342     Zr2350   2.461       .  S
O2342      C2361   1.288       .  A
O2343      C2360   1.277       .  A
O2344     Zr2352   2.337       .  S
O2344      C2359   1.258       .  A
O2345     Zr2350   2.405       .  S
O2345     Zr2352   2.406       .  S
O2346     Zr2351   2.382       .  S
O2346     Zr2352   2.413       .  S
O2346      H2381   0.966       .  S
O2347     Zr2350   2.403       .  S
O2347     Zr2367   2.393       .  S
O2347      H2384   0.960       .  S
O2348     Zr2351   2.284       .  S
O2348     Zr2367   2.355       .  S
Zr2349     O2368   2.457       .  S
Zr2349     O2364   2.416       .  S
Zr2349     O2355   2.373   1_556  S
Zr2349     O2356   2.441       .  S
Zr2349     O2357   2.395       .  S
Zr2349     O2358   2.399       .  S
Zr2350     O2369   2.441       .  S
Zr2350     O2362   2.435       .  S
Zr2350     O2363   2.432       .  S
Zr2350     O2356   2.414       .  S
Zr2350     O2357   2.412       .  S
Zr2351     O2353   2.437   1_556  S
Zr2351     O2355   2.361   1_556  S
Zr2351     O2358   2.419       .  S
Zr2352     O2378   2.435   1_556  S
Zr2352     O2379   2.436   1_556  S
Zr2352     O2354   2.443       .  S
Zr2352     O2355   2.343   1_556  S
Zr2352     O2356   2.371       .  S
O2353      H2390   0.990       .  S
O2354      H2385   0.990       .  S
O2354      H2399   0.990       .  S
O2356      H2382   0.962       .  S
O2357     Zr2367   2.358       .  S
O2358     Zr2367   2.371       .  S
O2358      H2383   0.966       .  S
C2361      C2426   1.487       .  S
O2362      H2398   0.990       .  S
O2363      C2365   1.277       .  A
O2364      C2365   1.280       .  A
C2365      C2936   1.488       .  S
O2366     Zr2367   2.438       .  S
O2366      H2395   0.990       .  S
Zr2367     O2370   2.438       .  S
Zr2367     O2371   2.440       .  S
Zr2367     O2372   2.519       .  S
O2368      C2373   1.283       .  A
O2369      H2386   0.990       .  S
O2369      H2401   0.990       .  S
O2370      H2387   0.990       .  S
O2371      H2391   0.990       .  S
O2371      H2400   0.990       .  S
O2372      C2373   1.297       .  A
O2374      H2393   0.990       .  S
O2375      H2389   0.990       .  S
O2376      C2380   1.295       .  A
O2377      C2380   1.297       .  A
O2378      H2388   0.990       .  S
O2379      H2392   0.991       .  S
C2380      C2431   1.492       .  S
Zr2403     O2404   2.441       .  S
Zr2403     O2405   2.448       .  S
Zr2403     O2406   2.438       .  S
Zr2403     O2409   2.476       .  S
Zr2403     O2411   2.388       .  S
Zr2403     O2412   2.400       .  S
Zr2403     O2413   2.428       .  S
Zr2403     O2414   2.374       .  S
O2404      H2460   0.990       .  S
O2404      H2468   0.991       .  S
O2405      C2425   1.280       .  A
O2406      C2427   1.286       .  A
O2407     Zr2417   2.492       .  S
O2407      C2426   1.297       .  A
O2408     Zr2416   2.427       .  S
O2408      C2427   1.276       .  A
O2409      C2426   1.294       .  A
O2410     Zr2418   2.514       .  S
O2410      C2425   1.295       .  A
O2411     Zr2416   2.407       .  S
O2411     Zr2418   2.350       .  S
O2412     Zr2417   2.416       .  S
O2412     Zr2418   2.370       .  S
O2412      H2447   0.966       .  S
O2413     Zr2416   2.414       .  S
O2413     Zr2433   2.370       .  S
O2413      H2450   0.960       .  S
O2414     Zr2417   2.360       .  S
O2414     Zr2433   2.338       .  S
Zr2415     O2440   2.446       .  S
Zr2415     O2434   2.596       .  S
Zr2415     O2442   2.425       .  S
Zr2415     O2430   2.491       .  S
Zr2415     O2422   2.438       .  S
Zr2415     O2423   2.368       .  S
Zr2415     O2424   2.382       .  S
Zr2415     O2421   2.373       .  S
Zr2416     O2435   2.435       .  S
Zr2416     O2428   2.432       .  S
Zr2416     O2429   2.455       .  S
Zr2416     O2422   2.397       .  S
Zr2416     O2423   2.405       .  S
Zr2417     O2419   2.437       .  S
Zr2417     O2441   2.439       .  S
Zr2417     O2443   2.484       .  S
Zr2417     O2424   2.385       .  S
Zr2417     O2421   2.284       .  S
Zr2418     O2444   2.437       .  S
Zr2418     O2445   2.436       .  S
Zr2418     O2420   2.437       .  S
Zr2418     O2422   2.391       .  S
Zr2418     O2421   2.361       .  S
O2419      H2456   0.990       .  S
O2420      H2451   0.990       .  S
O2420      H2465   0.991       .  S
O2422      H2448   0.961       .  S
O2423     Zr2433   2.410       .  S
O2424     Zr2433   2.407       .  S
O2424      H2449   0.966       .  S
C2427      C2922   1.486       .  S
O2428      H2464   0.991       .  S
O2429      C2431   1.288       .  A
O2430      C2431   1.292       .  A
O2432     Zr2433   2.435       .  S
O2432      H2461   0.990       .  S
Zr2433     O2436   2.434       .  S
Zr2433     O2437   2.443       .  S
Zr2433     O2438   2.331       .  S
O2434      C2439   1.312       .  A
O2435      H2452   0.989       .  S
O2435      H2467   0.989       .  S
O2436      H2453   0.990       .  S
O2437      H2457   0.989       .  S
O2437      H2466   0.990       .  S
O2438      C2439   1.258       .  A
O2440      H2459   0.991       .  S
O2440      H2463   0.991       .  S
O2441      H2455   0.990       .  S
O2441      H2462   0.990       .  S
O2442      C2446   1.274       .  A
O2443      C2446   1.299       .  A
O2444      H2454   0.990       .  S
O2445      H2458   0.990       .  S
Zr2469     O2470   2.439       .  S
Zr2469     O2471   2.489       .  S
Zr2469     O2472   2.455       .  S
Zr2469     O2475   2.520       .  S
Zr2469     O2478   2.403       .  S
Zr2469     O2479   2.436       .  S
Zr2469     O2480   2.374       .  S
O2470      H2526   0.990       .  S
O2470      H2534   0.990       .  S
O2471      C2491   1.291       .  A
O2473     Zr2483   2.480       .  S
O2473      C2492   1.294       .  A
O2474     Zr2482   2.431       .  S
O2474      C2493   1.276       .  A
O2475      C2492   1.302       .  A
O2476      C2491   1.289       .  A
O2477     Zr2482   2.410       .  S
O2477     Zr2484   2.362       .  S
O2478     Zr2483   2.421       .  S
O2478      H2513   0.965       .  S
O2479     Zr2499   2.374       .  S
O2479      H2516   0.962       .  S
O2480     Zr2483   2.353       .  S
O2480     Zr2499   2.345       .  S
Zr2481     O2506   2.443       .  S
Zr2481     O2500   2.560       .  S
Zr2481     O2508   2.456       .  S
Zr2481     O2496   2.491       .  S
Zr2481     O2488   2.428       .  S
Zr2481     O2489   2.377       .  S
Zr2481     O2487   2.365       .  S
Zr2482     O2501   2.435       .  S
Zr2482     O2494   2.434       .  S
Zr2482     O2495   2.449       .  S
Zr2482     O2488   2.406       .  S
Zr2482     O2489   2.402       .  S
Zr2483     O2485   2.436       .  S
Zr2483     O2507   2.438       .  S
Zr2483     O2509   2.474       .  S
Zr2483     O2490   2.392       .  S
Zr2484     O2511   2.436       .  S
Zr2484     O2486   2.441       .  S
Zr2484     O2488   2.374       .  S
Zr2484     O2487   2.345       .  S
O2485      H2522   0.990       .  S
O2486      H2517   0.990       .  S
O2486      H2531   0.991       .  S
O2488      H2514   0.958       .  S
O2490     Zr2499   2.391       .  S
O2490      H2515   0.966       .  S
C2491      C2623   1.514       .  S
C2492      C2563   1.502       .  S
C2493      C2908   1.491       .  S
O2494      H2530   0.990       .  S
O2495      C2497   1.288       .  A
O2496      C2497   1.293       .  A
C2497      C2558   1.484       .  S
O2498     Zr2499   2.438       .  S
O2498      H2527   0.991       .  S
Zr2499     O2503   2.440       .  S
O2500      C2505   1.299   1_455  A
O2501      H2518   0.990       .  S
O2501      H2533   0.988       .  S
O2502      H2519   0.990       .  S
O2503      H2523   0.990   1_455  S
O2503      H2532   0.989       .  S
O2504      C2505   1.257       .  A
O2506      H2525   0.991       .  S
O2506      H2529   0.991       .  S
O2507      H2521   0.990       .  S
O2507      H2528   0.990       .  S
O2508      C2512   1.282       .  A
O2510      H2520   0.990       .  S
O2511      H2524   0.990       .  S
Zr2535     O2536   2.441       .  S
Zr2535     O2537   2.484       .  S
Zr2535     O2538   2.423       .  S
Zr2535     O2541   2.476       .  S
Zr2535     O2543   2.396       .  S
Zr2535     O2544   2.402       .  S
Zr2535     O2545   2.448       .  S
Zr2535     O2546   2.371       .  S
O2536      H2592   0.990       .  S
O2536      H2600   0.990       .  S
O2537      C2557   1.289       .  A
O2538      C2559   1.275       .  A
O2539     Zr2549   2.492       .  S
O2539      C2558   1.295       .  A
O2540     Zr2548   2.470       .  S
O2540      C2559   1.287       .  A
O2541      C2558   1.294       .  A
O2542     Zr2550   2.481       .  S
O2542      C2557   1.289       .  A
O2543     Zr2548   2.413       .  S
O2543     Zr2550   2.366       .  S
O2544     Zr2549   2.417       .  S
O2544     Zr2550   2.376       .  S
O2544      H2579   0.966       .  S
O2545     Zr2548   2.411       .  S
O2545     Zr2565   2.358       .  S
O2545      H2582   0.945       .  S
O2546     Zr2549   2.342       .  S
O2546     Zr2565   2.336       .  S
Zr2547     O2572   2.442       .  S
Zr2547     O2566   2.594       .  S
Zr2547     O2574   2.470       .  S
Zr2547     O2562   2.521       .  S
Zr2547     O2554   2.434       .  S
Zr2547     O2555   2.378       .  S
Zr2547     O2556   2.394       .  S
Zr2547     O2553   2.375       .  S
Zr2548     O2567   2.440       .  S
Zr2548     O2560   2.435       .  S
Zr2548     O2561   2.467       .  S
Zr2548     O2554   2.410       .  S
Zr2548     O2555   2.413       .  S
Zr2549     O2551   2.441       .  S
Zr2549     O2573   2.440       .  S
Zr2549     O2575   2.452       .  S
Zr2549     O2556   2.396       .  S
Zr2549     O2553   2.292       .  S
Zr2550     O2576   2.436       .  S
Zr2550     O2577   2.437       .  S
Zr2550     O2552   2.442       .  S
Zr2550     O2554   2.369       .  S
Zr2550     O2553   2.354       .  S
O2551      H2588   0.990       .  S
O2552      H2583   0.990       .  S
O2552      H2597   0.991       .  S
O2554      H2580   0.958       .  S
O2555     Zr2565   2.407       .  S
O2556     Zr2565   2.388       .  S
O2556      H2581   0.966       .  S
C2557      C2703   1.516       .  S
C2559      C2894   1.488       .  S
O2560      H2596   0.990       .  S
O2561      C2563   1.291       .  A
O2562      C2563   1.302       .  A
O2564     Zr2565   2.437       .  S
O2564      H2593   0.990       .  S
Zr2565     O2568   2.436   1_455  S
Zr2565     O2569   2.438       .  S
Zr2565     O2570   2.351   1_455  S
O2566      C2571   1.310   1_455  A
O2567      H2584   0.991       .  S
O2567      H2599   0.990       .  S
O2568      H2585   0.990       .  S
O2569      H2589   0.989       .  S
O2569      H2598   0.990       .  S
O2570      C2571   1.259       .  A
O2572      H2591   0.991       .  S
O2572      H2595   0.990       .  S
O2573      H2587   0.990       .  S
O2573      H2594   0.990       .  S
O2574      C2578   1.284       .  A
O2575      C2578   1.292       .  A
O2576      H2586   0.991       .  S
O2577      H2590   0.990       .  S
Zr2601     O2603   2.470       .  S
Zr2601     O2604   2.435       .  S
Zr2601     O2609   2.381       .  S
Zr2601     O2610   2.399       .  S
Zr2601     O2611   2.429       .  S
Zr2601     O2612   2.371   1_556  S
O2602      H2658   0.991       .  S
O2603      C2623   1.287       .  A
O2604      C2625   1.288       .  A
O2605      C2624   1.290       .  A
O2606     Zr2614   2.425       .  S
O2606      C2625   1.279       .  A
O2607      C2624   1.301       .  A
O2608     Zr2616   2.499       .  S
O2608      C2623   1.293       .  A
O2609     Zr2614   2.394       .  S
O2609     Zr2616   2.351       .  S
O2610     Zr2615   2.415       .  S
O2610     Zr2616   2.374       .  S
O2610      H2645   0.965   1_556  S
O2611     Zr2614   2.400       .  S
O2611     Zr2631   2.378       .  S
O2611      H2648   0.965       .  S
O2612     Zr2615   2.364   1_554  S
O2612     Zr2631   2.344   1_554  S
Zr2613     O2638   2.443       .  S
Zr2613     O2632   2.592       .  S
Zr2613     O2640   2.479       .  S
Zr2613     O2628   2.503       .  S
Zr2613     O2620   2.438       .  S
Zr2613     O2621   2.386       .  S
Zr2613     O2622   2.384       .  S
Zr2613     O2619   2.365       .  S
Zr2614     O2633   2.432       .  S
Zr2614     O2626   2.435       .  S
Zr2614     O2627   2.433       .  S
Zr2614     O2620   2.407       .  S
Zr2614     O2621   2.404       .  S
Zr2615     O2639   2.438   1_556  S
Zr2615     O2641   2.468       .  S
Zr2615     O2622   2.385       .  S
Zr2615     O2619   2.284       .  S
Zr2616     O2642   2.438       .  S
Zr2616     O2643   2.436       .  S
Zr2616     O2618   2.441       .  S
Zr2616     O2620   2.377       .  S
Zr2616     O2619   2.357       .  S
O2617      H2654   0.990       .  S
O2618      H2649   0.990       .  S
O2618      H2663   0.991       .  S
O2620      H2646   0.962       .  S
O2621     Zr2631   2.402       .  S
O2622     Zr2631   2.414       .  S
O2622      H2647   0.966       .  S
C2624      C2691   1.492       .  S
C2625      C2880   1.478       .  S
O2626      H2662   0.991       .  S
O2627      C2629   1.284       .  A
O2628      C2629   1.297       .  A
C2629      C2710   1.485       .  S
O2630     Zr2631   2.438   1_554  S
O2630      H2659   0.990       .  S
Zr2631     O2634   2.437       .  S
Zr2631     O2635   2.436   1_556  S
Zr2631     O2636   2.339       .  S
O2632      C2637   1.311       .  A
O2633      H2650   0.990       .  S
O2633      H2665   0.990       .  S
O2634      H2651   0.990       .  S
O2635      H2655   0.990       .  S
O2635      H2664   0.990       .  S
O2636      C2637   1.260       .  A
O2638      H2657   0.991       .  S
O2638      H2661   0.990       .  S
O2639      H2660   0.990       .  S
O2640      C2644   1.285       .  A
O2641      C2644   1.295       .  A
O2642      H2652   0.990       .  S
O2643      H2656   0.990       .  S
Zr2667     O2668   2.442       .  S
Zr2667     O2669   2.603       .  S
Zr2667     O2670   2.514       .  S
Zr2667     O2673   2.465       .  S
Zr2667     O2675   2.379       .  S
Zr2667     O2676   2.387       .  S
Zr2667     O2677   2.445       .  S
Zr2667     O2678   2.368       .  S
O2668      H2724   0.990       .  S
O2668      H2732   0.991       .  S
O2669      C2689   1.314       .  A
O2670      C2691   1.299       .  A
O2671     Zr2681   2.462       .  S
O2671      C2690   1.293       .  A
O2672     Zr2680   2.430       .  S
O2672      C2691   1.281       .  A
O2673      C2690   1.283       .  A
O2674     Zr2682   2.335       .  S
O2674      C2689   1.260       .  A
O2675     Zr2680   2.403       .  S
O2675     Zr2682   2.400       .  S
O2676     Zr2681   2.384       .  S
O2676     Zr2682   2.413       .  S
O2676      H2711   0.966       .  S
O2677     Zr2680   2.398       .  S
O2677     Zr2697   2.385       .  S
O2677      H2714   0.958       .  S
O2678     Zr2681   2.279       .  S
O2678     Zr2697   2.354       .  S
Zr2679     O2704   2.441       .  S
Zr2679     O2698   2.471       .  S
Zr2679     O2706   2.494       .  S
Zr2679     O2694   2.437       .  S
Zr2679     O2685   2.366       .  S
Zr2679     O2686   2.430       .  S
Zr2679     O2687   2.380       .  S
Zr2679     O2688   2.409       .  S
Zr2680     O2699   2.441       .  S
Zr2680     O2692   2.429       .  S
Zr2680     O2693   2.414       .  S
Zr2680     O2686   2.403       .  S
Zr2680     O2687   2.386       .  S
Zr2681     O2683   2.437       .  S
Zr2681     O2705   2.438       .  S
Zr2681     O2707   2.467       .  S
Zr2681     O2685   2.356       .  S
Zr2681     O2688   2.415       .  S
Zr2682     O2708   2.436       .  S
Zr2682     O2709   2.441       .  S
Zr2682     O2684   2.438       .  S
Zr2682     O2685   2.339       .  S
Zr2682     O2686   2.374       .  S
O2683      H2720   0.990       .  S
O2684      H2715   0.989       .  S
O2684      H2729   0.990       .  S
O2686      H2712   0.964       .  S
O2687     Zr2697   2.351       .  S
O2688     Zr2697   2.377       .  S
O2688      H2713   0.965       .  S
O2692      H2728   0.990       .  S
O2693      C2695   1.279       .  A
O2694      C2695   1.288       .  A
C2695      C2866   1.474       .  S
O2696     Zr2697   2.438       .  S
O2696      H2725   0.990       .  S
Zr2697     O2700   2.435       .  S
Zr2697     O2701   2.445       .  S
Zr2697     O2702   2.504       .  S
O2698      C2703   1.287       .  A
O2699      H2716   0.990       .  S
O2699      H2731   0.990       .  S
O2700      H2717   0.990       .  S
O2701      H2721   0.989       .  S
O2701      H2730   0.990       .  S
O2702      C2703   1.294       .  A
O2704      H2723   0.990       .  S
O2704      H2727   0.991       .  S
O2705      H2719   0.989       .  S
O2705      H2726   0.990       .  S
O2706      C2710   1.299       .  A
O2707      C2710   1.291       .  A
O2708      H2718   0.990       .  S
O2709      H2722   0.990       .  S
Zr2733     O2734   2.439   1_655  S
Zr2733     O2735   2.412       .  S
Zr2733     O2736   2.444       .  S
Zr2733     O2743   2.388       .  S
O2734      H2790   0.990       .  S
O2734      H2798   0.991       .  S
O2736      C2757   1.285       .  A
O2737     Zr2747   2.423   1_455  S
O2737      C2756   1.284       .  A
O2738     Zr2746   2.423       .  S
O2738      C2757   1.282       .  A
O2739      C2756   1.280       .  A
O2740     Zr2748   2.425       .  S
O2740      C2755   1.274       .  A
O2741     Zr2748   2.400       .  S
O2742     Zr2747   2.370       .  S
O2742     Zr2748   2.396       .  S
O2742      H2777   0.963       .  S
O2743     Zr2746   2.417       .  S
O2743      H2780   0.964       .  S
O2744     Zr2747   2.391       .  S
O2744     Zr2763   2.380       .  S
Zr2745     O2770   2.443       .  S
Zr2745     O2764   2.439       .  S
Zr2745     O2772   2.426       .  S
Zr2745     O2760   2.413       .  S
Zr2745     O2751   2.396       .  S
Zr2745     O2752   2.426       .  S
Zr2745     O2753   2.374       .  S
Zr2745     O2754   2.390       .  S
Zr2746     O2765   2.441       .  S
Zr2746     O2758   2.434       .  S
Zr2747     O2749   2.434   1_655  S
Zr2747     O2771   2.441   1_655  S
Zr2747     O2773   2.430       .  S
Zr2747     O2751   2.396       .  S
Zr2747     O2754   2.376       .  S
Zr2748     O2774   2.435       .  S
Zr2748     O2775   2.437       .  S
Zr2748     O2750   2.440       .  S
Zr2748     O2751   2.404       .  S
Zr2748     O2752   2.406       .  S
O2749      H2786   0.990       .  S
O2750      H2781   0.990       .  S
O2750      H2795   0.990       .  S
O2752      H2778   0.965       .  S
O2753     Zr2763   2.360       .  S
O2754     Zr2763   2.383       .  S
O2754      H2779   0.966       .  S
C2755      C2911   1.484       .  S
C2756      C2883   1.462       .  S
C2757      C2842   1.466       .  S
O2758      H2794   0.990       .  S
O2759      C2761   1.279       .  A
O2760      C2761   1.275       .  A
C2761      C2939   1.478       .  S
O2762      H2791   0.990       .  S
Zr2763     O2767   2.438       .  S
Zr2763     O2768   2.391       .  S
O2764      C2769   1.283       .  A
O2765      H2782   0.990       .  S
O2765      H2797   0.990       .  S
O2766      H2783   0.991       .  S
O2767      H2787   0.990   1_655  S
O2767      H2796   0.990       .  S
O2768      C2769   1.278       .  A
C2769      C2964   1.467       .  S
O2770      H2789   0.989       .  S
O2770      H2793   0.990       .  S
O2771      H2785   0.990       .  S
O2771      H2792   0.990       .  S
O2772      C2776   1.281       .  A
O2773      C2776   1.284       .  A
O2774      H2784   0.990       .  S
O2775      H2788   0.990       .  S
C2776      C2823   1.469       .  S
Zr2799     O2800   2.441       .  S
Zr2799     O2801   2.405       .  S
Zr2799     O2802   2.446       .  S
Zr2799     O2805   2.402       .  S
Zr2799     O2807   2.382       .  S
Zr2799     O2808   2.389       .  S
Zr2799     O2809   2.388       .  S
Zr2799     O2810   2.405       .  S
O2800      H2856   0.990       .  S
O2800      H2864   0.990       .  S
O2801      C2821   1.282       .  A
O2802      C2823   1.286       .  A
O2803     Zr2813   2.454       .  S
O2803      C2822   1.288       .  A
O2804     Zr2812   2.406       .  S
O2804      C2823   1.279       .  A
O2805      C2822   1.278       .  A
O2806     Zr2814   2.441       .  S
O2806      C2821   1.287       .  A
O2807     Zr2812   2.380       .  S
O2807     Zr2814   2.384       .  S
O2808     Zr2813   2.365       .  S
O2808     Zr2814   2.353       .  S
O2808      H2843   0.959       .  S
O2809     Zr2812   2.401       .  S
O2809     Zr2829   2.405       .  S
O2809      H2846   0.966       .  S
O2810     Zr2813   2.392       .  S
O2810     Zr2829   2.394       .  S
Zr2811     O2836   2.441   1_655  S
Zr2811     O2830   2.425       .  S
Zr2811     O2838   2.424       .  S
Zr2811     O2826   2.421   1_655  S
Zr2811     O2817   2.395       .  S
Zr2811     O2818   2.408       .  S
Zr2811     O2819   2.371       .  S
Zr2811     O2820   2.390       .  S
Zr2812     O2831   2.440       .  S
Zr2812     O2824   2.434   1_655  S
Zr2812     O2825   2.411   1_655  S
Zr2812     O2818   2.395       .  S
Zr2812     O2819   2.370       .  S
Zr2813     O2815   2.435       .  S
Zr2813     O2837   2.441       .  S
Zr2813     O2839   2.425       .  S
Zr2813     O2817   2.404       .  S
Zr2813     O2820   2.384       .  S
Zr2814     O2840   2.435       .  S
Zr2814     O2841   2.438   1_655  S
Zr2814     O2816   2.435   1_655  S
Zr2814     O2817   2.402       .  S
Zr2814     O2818   2.392       .  S
O2815      H2852   0.990       .  S
O2816      H2847   0.990       .  S
O2816      H2861   0.990       .  S
O2818      H2844   0.967   1_655  S
O2819     Zr2829   2.377       .  S
O2820     Zr2829   2.386       .  S
O2820      H2845   0.966       .  S
C2821      C2950   1.475       .  S
C2822      C2925   1.481       .  S
O2824      H2860   0.990       .  S
O2825      C2827   1.278       .  A
O2826      C2827   1.285       .  A
C2827      C2869   1.469       .  S
O2828     Zr2829   2.435       .  S
O2828      H2857   0.990       .  S
Zr2829     O2832   2.432       .  S
Zr2829     O2833   2.440       .  S
Zr2829     O2834   2.417       .  S
O2830      C2835   1.278       .  A
O2831      H2848   0.990       .  S
O2831      H2863   0.988   1_655  S
O2832      H2849   0.990       .  S
O2833      H2853   0.990       .  S
O2833      H2862   0.990       .  S
O2834      C2835   1.276       .  A
C2835      C2897   1.480       .  S
O2836      H2855   0.990       .  S
O2836      H2859   0.990       .  S
O2837      H2851   0.990       .  S
O2837      H2858   0.991       .  S
O2838      C2842   1.283       .  A
O2839      C2842   1.284       .  A
O2840      H2850   0.990       .  S
O2841      H2854   0.991       .  S
C2865      C2866   1.404       .  A
C2865      C2870   1.398       .  A
C2865      H2872   1.084       .  S
C2866      C2867   1.417       .  A
C2867      C2868   1.384       .  A
C2867      N2874   1.430       .  S
C2868      C2869   1.396       .  A
C2868      H2873   1.084       .  S
C2869      C2870   1.415       .  A
C2870      N2871   1.429       .  S
N2871      O2875   1.260       .  A
N2871      O2876   1.261       .  A
N2874      O2878   1.261       .  A
N2874      O2877   1.261       .  A
C2879      C2880   1.407       .  A
C2879      C2884   1.393       .  A
C2879      H2886   1.084   1_556  S
C2880      C2881   1.418       .  A
C2881      C2882   1.392       .  A
C2881      N2888   1.427       .  S
C2882      C2883   1.396       .  A
C2882      H2887   1.085       .  S
C2883      C2884   1.407       .  A
C2884      N2885   1.429   1_556  S
N2885      O2889   1.261       .  A
N2885      O2890   1.262       .  A
N2888      O2892   1.262       .  A
N2888      O2891   1.260       .  A
C2893      C2894   1.398       .  A
C2893      C2898   1.393       .  A
C2893      H2900   1.077       .  S
C2894      C2895   1.420       .  A
C2895      C2896   1.396       .  A
C2895      N2902   1.427       .  S
C2896      C2897   1.401   1_455  A
C2896      H2901   1.084       .  S
C2897      C2898   1.414   1_655  A
C2898      N2899   1.428   1_455  S
N2899      O2903   1.262       .  A
N2899      O2904   1.261       .  A
N2902      O2906   1.260       .  A
N2902      O2905   1.262       .  A
C2907      C2908   1.405       .  A
C2907      C2912   1.386       .  A
C2907      H2914   1.082       .  S
C2909      C2910   1.401       .  A
C2909      N2916   1.428       .  S
C2910      C2911   1.403   1_454  A
C2910      H2915   1.083       .  S
C2912      N2913   1.428       .  S
N2913      O2918   1.262   1_455  A
N2916      O2919   1.260       .  A
C2921      C2922   1.405       .  A
C2921      C2926   1.387       .  A
C2921      H2928   1.083       .  S
C2922      C2923   1.416       .  A
C2923      C2924   1.401       .  A
C2923      N2930   1.429       .  S
C2924      C2925   1.407       .  A
C2924      H2929   1.083       .  S
C2925      C2926   1.412       .  A
C2926      N2927   1.429       .  S
N2927      O2931   1.261       .  A
N2927      O2932   1.261       .  A
N2930      O2934   1.260       .  A
N2930      O2933   1.261       .  A
C2935      C2936   1.410       .  A
C2935      C2940   1.388       .  A
C2935      H2942   1.083   1_556  S
C2936      C2937   1.417       .  A
C2937      C2938   1.403       .  A
C2937      N2944   1.438       .  S
C2938      C2939   1.406       .  A
C2938      H2943   1.079       .  S
C2939      C2940   1.407       .  A
N2941      O2945   1.261       .  A
N2941      O2946   1.262       .  A
N2944      O2948   1.264       .  A
N2944      O2947   1.262       .  A
C2949      C2950   1.396       .  A
C2949      C2954   1.391       .  A
C2949      H2956   1.084       .  S
C2950      C2951   1.410       .  A
C2951      C2952   1.402       .  A
C2951      N2958   1.429       .  S
C2952      C2953   1.408       .  A
C2952      H2957   1.083       .  S
C2953      C2954   1.419       .  A
C2954      N2955   1.428       .  S
N2955      O2959   1.261       .  A
N2955      O2960   1.262       .  A
N2958      O2962   1.262       .  A
N2958      O2961   1.262       .  A
C2963      C2964   1.401       .  A
C2963      C2968   1.390       .  A
C2963      H2970   1.084   1_556  S
C2964      C2965   1.404       .  A
C2965      C2966   1.396       .  A
C2965      N2972   1.428       .  S
C2966      C2967   1.410       .  A
C2966      H2971   1.083       .  S
C2967      C2968   1.415       .  A
C2968      N2969   1.429   1_556  S
N2969      O2973   1.262       .  A
N2969      O2974   1.261       .  A
N2972      O2976   1.262       .  A
N2972      O2975   1.261       .  A
C2977      C2978   1.401       .  A
C2977      C2982   1.396       .  A
C2977      H2984   1.084       .  S
C2978      C2979   1.417       .  A
C2979      C2980   1.404       .  A
C2979      N2986   1.428       .  S
C2980      C2981   1.405       .  A
C2980      H2985   1.080       .  S
C2981      C2982   1.419       .  A
C2982      N2983   1.425       .  S
N2983      O2987   1.259       .  A
N2983      O2988   1.261       .  A
N2986      O2990   1.260       .  A
N2986      O2989   1.262       .  A
C2991      C2992   1.405       .  A
C2991      C2996   1.387       .  A
C2991      H2998   1.083       .  S
C2992      C2993   1.401       .  A
C2993      C2994   1.388       .  A
C2993      N3000   1.427       .  S
C2994      C2995   1.411       .  A
C2994      H2999   1.083       .  S
C2995      C2996   1.410       .  A
C2996      N2997   1.430       .  S
N2997      O3001   1.260       .  A
N2997      O3002   1.262       .  A
N3000      O3004   1.262       .  A
N3000      O3003   1.261       .  A
C3005      C3006   1.398       .  A
C3005      C3010   1.404       .  A
C3005      H3012   1.084       .  S
C3006      C3007   1.415       .  A
C3007      C3008   1.387       .  A
C3007      N3014   1.427       .  S
C3008      C3009   1.399       .  A
C3008      H3013   1.082       .  S
C3009      C3010   1.423       .  A
C3010      N3011   1.425       .  S
N3011      O3015   1.260       .  A
N3011      O3016   1.261       .  A
N3014      O3018   1.262       .  A
N3014      O3017   1.261       .  A
C3019      C3024   1.390       .  A
C3019      H3026   1.083       .  S
C3020      C3021   1.407       .  A
C3021      C3022   1.382       .  A
C3021      N3028   1.428       .  S
C3022      C3023   1.404       .  A
C3022      H3027   1.083       .  S
C3024      N3025   1.428       .  S
N3025      O3029   1.261       .  A
N3025      O3030   1.262       .  A
N3028      O3032   1.262       .  A
N3028      O3031   1.262       .  A
C3033      C3034   1.403       .  A
C3033      C3038   1.398       .  A
C3033      H3040   1.083       .  S
C3034      C3035   1.425       .  A
C3035      C3036   1.397       .  A
C3035      N3042   1.428       .  S
C3036      C3037   1.398       .  A
C3036      H3041   1.084       .  S
C3037      C3038   1.413       .  A
C3038      N3039   1.426       .  S
N3039      O3043   1.262       .  A
N3039      O3044   1.260       .  A
N3042      O3046   1.261       .  A
N3042      O3045   1.260       .  A
C3047      C3048   1.406   1_554  A
C3047      C3052   1.398   1_554  A
C3048      C3049   1.413       .  A
C3049      C3050   1.383       .  A
C3049      N3056   1.430       .  S
C3050      C3051   1.396       .  A
C3050      H3055   1.083       .  S
C3051      C3052   1.406       .  A
N3053      O3057   1.261       .  A
N3056      O3060   1.262       .  A
N3056      O3059   1.262   1_556  A
C3061      C3062   1.405       .  A
C3061      C3066   1.392       .  A
C3061      H3068   1.084       .  S
C3062      C3063   1.415       .  A
C3063      C3064   1.389       .  A
C3063      N3070   1.427       .  S
C3064      C3065   1.402       .  A
C3064      H3069   1.083       .  S
C3065      C3066   1.414       .  A
C3066      N3067   1.428       .  S
N3067      O3071   1.261       .  A
N3067      O3072   1.262       .  A
N3070      O3074   1.263       .  A
N3070      O3073   1.260       .  A
C3075      C3076   1.407       .  A
C3075      C3080   1.407       .  A
C3075      H3082   1.084       .  S
C3076      C3077   1.416       .  A
C3077      C3078   1.386       .  A
C3077      N3084   1.429       .  S
C3078      C3079   1.385       .  A
C3078      H3083   1.084       .  S
C3079      C3080   1.407       .  A
C3080      N3081   1.429       .  S
N3081      O3086   1.262       .  A
N3084      O3088   1.261       .  A
N3084      O3087   1.261       .  A
