geometry optimzed in LAMMPS
_audit_creation_date              2020-11-30 
_audit_creation_method            'lammps2cif' 
_symmetry_space_group_name_H-M    'P1' 
_symmetry_Int_Tables_number       1 
_symmetry_cell_setting            triclinic 
loop_ 
_symmetry_equiv_pos_as_xyz 
  x,y,z 
_cell_length_a                    29.08764087 
_cell_length_b                    28.612745005411774 
_cell_length_c                    28.82227385758783 
_cell_angle_alpha                 90.11393997873674 
_cell_angle_beta                  89.46963000322201 
_cell_angle_gamma                 90.00188054702392 
loop_ 
_atom_site_label 
_atom_site_type_symbol 
_atom_site_fract_x 
_atom_site_fract_y 
_atom_site_fract_z 
_atom_site_charge 
C1          C  0.41892128  0.39506509  0.11905241     0.42800
N2          N  0.42574819  0.43745812  0.05838839     0.01600
C3          C  0.60924769  0.44380177  0.40358495    -0.06200
H4          H  0.64932269  0.47084647  0.08280039     0.07100
C5          C  0.55124681  0.61611669  0.07567573    -0.06600
Co6        Co  0.50653255  0.40910722  0.00155197     0.74200
N7          N  0.58872228  0.45218852  0.04436082    -0.25800
Co8        Co  0.58311173  0.50147432  0.49121691     0.74100
C9          C  0.59487472  0.60294362  0.09598708     0.42900
N10         N  0.44486168  0.57354142  0.05118870     0.01300
N11         N  0.57936656  0.55475684  0.04167597     0.01400
N12         N  0.55935703  0.38349925  0.40990233    -0.46600
H13         H  0.48198483  0.35082214  0.09903286     0.07100
N14         N  0.55959805  0.41709296  0.04756971     0.01700
N15         N  0.57369222  0.55195294  0.44125611     0.01400
C16         C  0.58261299  0.59694579  0.38268384     0.43000
N17         N  0.41578793  0.53854554  0.05406501    -0.25200
C18         C  0.44408898  0.37308372  0.41998695    -0.06100
N19         N  0.39948352  0.43048179  0.09539206    -0.46300
N20         N  0.60070003  0.56007896  0.40510615    -0.46500
C21         C  0.39912443  0.38704130  0.40276607     0.42800
N22         N  0.55338699  0.41430389  0.44355701     0.01600
N23         N  0.41076482  0.53583458  0.45465379    -0.25200
N24         N  0.46040154  0.40797363  0.05594493    -0.25700
N25         N  0.44006077  0.57086821  0.45254481     0.01300
H26         H  0.35419558  0.51559254  0.41099865     0.07200
H27         H  0.51753388  0.63915724  0.40251592     0.07200
N28         N  0.58236540  0.44959639  0.44095638    -0.25800
N29         N  0.54452232  0.58409778  0.04263778    -0.25400
N30         N  0.41860633  0.43384651  0.45643846     0.01600
C31         C  0.60656746  0.40597441  0.10247925     0.43000
C32         C  0.38908706  0.54378114  0.09154652    -0.06600
N33         N  0.53916732  0.58149727  0.44443850    -0.25400
H34         H  0.52905065  0.64555970  0.08305335     0.07200
N35         N  0.56929029  0.38825123  0.08167246    -0.46600
H36         H  0.36153977  0.52041732  0.10107914     0.07200
C37         C  0.39799172  0.58048634  0.39337718     0.42900
C38         C  0.45885877  0.37961722  0.09255453    -0.06100
Co39       Co  0.41586366  0.48610610  0.00611527     0.73800
N40         N  0.43966072  0.60340398  0.08570451    -0.46300
C41         C  0.59370410  0.39991978  0.38286235     0.43100
N42         N  0.38550716  0.42480881  0.42692592    -0.46300
Co43       Co  0.49240539  0.57780342  0.49897521     0.73900
C44         C  0.54158546  0.61121078  0.40879108    -0.06600
C45         C  0.62023712  0.44796098  0.07749564    -0.06200
N46         N  0.45308125  0.40421874  0.45329122    -0.25700
N47         N  0.61074554  0.56511753  0.07278935    -0.46500
H48         H  0.63726104  0.46660401  0.39361048     0.07200
C49         C  0.38204515  0.53929173  0.41881625    -0.06600
Cl50       Cl  0.49916261  0.49365755  0.99917407    -0.49600
C51         C  0.40533082  0.58672860  0.11300017     0.42900
H52         H  0.46551023  0.34360398  0.41061185     0.07100
N53         N  0.43334637  0.59863299  0.41685078    -0.46300
C54         C  0.60716738  0.90291286  0.10866852     0.42800
N55         N  0.58440935  0.95240479  0.05682054     0.01600
C56         C  0.37683479  0.07529279  0.06606326    -0.06200
H57         H  0.34968224  0.91836109  0.04860192     0.07100
C58         C  0.43936312  0.91606360  0.38487549    -0.06600
Co59       Co  0.49834469  0.00303073  0.08711834     0.74200
N60         N  0.41584930  0.95026542  0.05477359    -0.25800
Co61       Co  0.41582893  0.99852849  0.00056442     0.74100
C62         C  0.39528892  0.89661657  0.40065346     0.42900
N63         N  0.55672929  0.94991135  0.41934915     0.01300
N64         N  0.41872215  0.94748085  0.45013420     0.01400
N65         N  0.43107356  0.07726448  0.12139696    -0.46600
H66         H  0.54320779  0.91838483  0.15434259     0.07100
N67         N  0.44641957  0.95192730  0.08836452     0.01700
N68         N  0.41658422  0.04861038  0.44832986     0.01400
C69         C  0.38924153  0.09253572  0.39461038     0.43000
N70         N  0.58695796  0.95131115  0.45333436    -0.25200
C71         C  0.56176319  0.08627756  0.11811779    -0.06100
N72         N  0.61847816  0.92349367  0.06774613    -0.46300
N73         N  0.38066220  0.07473958  0.43716738    -0.46500
C74         C  0.60653205  0.10463047  0.10299121     0.42800
N75         N  0.44493884  0.05210843  0.08522373     0.01600
N76         N  0.58538903  0.05174566  0.45052496    -0.25200
N77         N  0.55142313  0.95307240  0.08863392    -0.25700
N78         N  0.55442227  0.05098581  0.41717339     0.01300
H79         H  0.65139891  0.08508673  0.45652396     0.07200
H80         H  0.45104868  0.07752140  0.34636950     0.07200
N81         N  0.41338175  0.04979788  0.05254051    -0.25800
N82         N  0.45121351  0.94729095  0.41770535    -0.25400
N83         N  0.58294183  0.05379230  0.05359303     0.01600
C84         C  0.39140371  0.90888858  0.11575727     0.43000
C85         C  0.62121623  0.92145520  0.44386982    -0.06600
N86         N  0.44850736  0.04771885  0.41527106    -0.25400
H87         H  0.45710197  0.91080962  0.35213756     0.07200
N88         N  0.43287991  0.92798557  0.12549250    -0.46600
H89         H  0.65248564  0.91789259  0.46357944     0.07200
C90         C  0.60744276  0.09791660  0.39161844     0.42900
C91         C  0.56240891  0.92279708  0.12235230    -0.06100
Co92       Co  0.58442595  0.00195780  0.00271466     0.73800
N93         N  0.56979297  0.92125388  0.38539340    -0.46300
C94         C  0.38846486  0.09343945  0.11209976     0.43100
N95         N  0.61760446  0.08218075  0.06325341    -0.46300
Co96       Co  0.50285519  0.99902147  0.41695748     0.73900
C97         C  0.43419756  0.07455337  0.37984206    -0.06600
C98         C  0.38077827  0.92294460  0.06818139    -0.06200
N99         N  0.55015844  0.05460480  0.08566893    -0.25700
N100        N  0.38447040  0.91845491  0.44077710    -0.46500
H101        H  0.34412567  0.07574898  0.04856090     0.07200
C102        C  0.61963157  0.08071062  0.43782945    -0.06600
Cl103      Cl  0.50001264  0.00062025  0.00145677    -0.49600
C104        C  0.60976171  0.90158722  0.39899992     0.42900
H105        H  0.54374333  0.09195294  0.15063885     0.07100
N106        N  0.56666778  0.07751294  0.38129695    -0.46300
C107        C  0.90820519  0.39438275  0.11408263     0.42800
N108        N  0.95249736  0.41830517  0.05801703     0.01600
C109        C  0.08469104  0.62355719  0.05466973    -0.06200
H110        H  0.92749744  0.66086961  0.04429740     0.07100
C111        C  0.92052972  0.56186104  0.38105796    -0.06600
Co112      Co  0.00430730  0.50578455  0.08470850     0.74200
N113        N  0.95678378  0.59182435  0.04984352    -0.25800
Co114      Co  0.00459276  0.58754700  0.99466846     0.74100
C115        C  0.90375580  0.60839975  0.39370340     0.42900
N116        N  0.95033409  0.44380647  0.41864462     0.01300
N117        N  0.95234584  0.58546732  0.44454080     0.01400
N118        N  0.08247549  0.57282841  0.11471001    -0.46600
H119        H  0.92474976  0.45998708  0.15743103     0.07100
N120        N  0.95608039  0.56038981  0.08344276     0.01700
N121        N  0.05144887  0.58409043  0.44058522     0.01400
C122        C  0.09618954  0.60687797  0.38474997     0.43000
N123        N  0.95087080  0.41342344  0.45323647    -0.25200
C124        C  0.07877254  0.43657574  0.12106964    -0.06100
N125        N  0.92654451  0.38268614  0.07224811    -0.46300
N126        N  0.07813630  0.61903701  0.42651529    -0.46500
C127        C  0.09461375  0.38995096  0.10766798     0.42800
N128        N  0.05526729  0.55873731  0.08051611     0.01600
N129        N  0.04963167  0.41253402  0.44919328    -0.25200
N130        N  0.95375333  0.45272860  0.08875029    -0.25700
N131        N  0.04942353  0.44322227  0.41497498     0.01300
H132        H  0.08231886  0.34575929  0.45747701     0.07200
H133        H  0.07996403  0.54074451  0.34205440     0.07200
N134        N  0.05528905  0.58865831  0.04549763    -0.25800
N135        N  0.95090197  0.55076540  0.41412730    -0.25400
N136        N  0.05145812  0.41707836  0.05408226     0.01600
C137        C  0.91313690  0.61654810  0.10964908     0.43000
C138        C  0.92233368  0.37802005  0.44313686    -0.06600
N139        N  0.04997051  0.54963278  0.41003220    -0.25400
H140        H  0.91468178  0.54216197  0.34959479     0.07200
N141        N  0.93089617  0.57404712  0.11956496    -0.46600
H142        H  0.91901550  0.34595033  0.46267896     0.07200
C143        C  0.09431676  0.38805762  0.39020485     0.42900
C144        C  0.92660521  0.44099196  0.12500173    -0.06100
Co145      Co  0.00091564  0.41567252  0.00313655     0.73800
N146        N  0.92363290  0.42998812  0.38407764    -0.46300
C147        C  0.10259485  0.61316830  0.10051020     0.43100
N148        N  0.07635449  0.38026875  0.06595515    -0.46300
Co149      Co  0.00011058  0.49682514  0.41434066     0.73900
C150        C  0.07762234  0.56045040  0.37403996    -0.06600
C151        C  0.93039258  0.62831937  0.06303677    -0.06200
N152        N  0.05206150  0.45060906  0.08583910    -0.25700
N153        N  0.92541289  0.62099472  0.43301779    -0.46500
H154        H  0.08857204  0.65512598  0.03442557     0.07200
C155        C  0.07761807  0.37706230  0.43719618    -0.06600
Cl156      Cl  0.00247912  0.50153795  0.99905784    -0.49600
C157        C  0.90447485  0.38906190  0.39732918     0.42900
H158        H  0.08244447  0.45444194  0.15392784     0.07100
N159        N  0.07529105  0.42975091  0.37912096    -0.46300
C160        C  0.25867850  0.24727584  0.20517226     0.45800
H161        H  0.26168180  0.24150315  0.16749318    -0.03300
C162        C  0.24980787  0.25634594  0.29376556     0.45800
H163        H  0.24290007  0.26218894  0.33074606    -0.03300
C164        C  0.29392275  0.28158560  0.22586930    -0.17000
C165        C  0.21145976  0.26834501  0.21915736    -0.16700
C166        C  0.26755215  0.20128570  0.23270075    -0.17100
C167        C  0.28892618  0.28558671  0.27323967    -0.17100
C168        C  0.20713963  0.27213708  0.26680269    -0.16600
C169        C  0.26443359  0.20607797  0.28095745    -0.17000
C170        C  0.75413431  0.25391340  0.20269769     0.45800
H171        H  0.75992859  0.25240237  0.16470670    -0.03300
C172        C  0.74120687  0.25329544  0.29141017     0.45800
H173        H  0.73404736  0.25035025  0.32882197    -0.03300
C174        C  0.71836852  0.29015990  0.21873579    -0.17000
C175        C  0.73430092  0.20702500  0.22070416    -0.16700
C176        C  0.79788416  0.26779917  0.23037974    -0.17100
C177        C  0.71169998  0.28948356  0.26606842    -0.17100
C178        C  0.72871897  0.20648595  0.26825504    -0.16600
C179        C  0.79074282  0.26866396  0.27847148    -0.17000
C180        C  0.26956120  0.74628140  0.20855694     0.45800
H181        H  0.27602387  0.75192981  0.17127357    -0.03300
C182        C  0.25621207  0.73785720  0.29695186     0.45800
H183        H  0.25003104  0.73583030  0.33481580    -0.03300
C184        C  0.30111616  0.70996576  0.23125312    -0.17000
C185        C  0.27983004  0.79142036  0.23613068    -0.16700
C186        C  0.22040081  0.72807102  0.21998378    -0.17100
C187        C  0.29365353  0.70496583  0.27843413    -0.17100
C188        C  0.27352780  0.78696945  0.28333471    -0.16600
C189        C  0.21366572  0.72411849  0.26771780    -0.17000
C190        C  0.74600878  0.74198246  0.20555995     0.45800
H191        H  0.74911418  0.74515692  0.16728161    -0.03300
C192        C  0.73869622  0.73450698  0.29451143     0.45800
H193        H  0.73716148  0.72833355  0.33216682    -0.03300
C194        C  0.71284523  0.70326056  0.22048940    -0.17000
C195        C  0.79209724  0.72872060  0.22955498    -0.16700
C196        C  0.72406735  0.78599074  0.22892186    -0.17100
C197        C  0.70877596  0.69945748  0.26776895    -0.17100
C198        C  0.78761020  0.72505552  0.27714250    -0.16600
C199        C  0.72277672  0.78341972  0.27735523    -0.17000
C200        C  0.18910701  0.70493770  0.18374760     0.00100
C201        C  0.14128032  0.70131395  0.19288239    -0.11700
C202        C  0.11261742  0.67121744  0.16705185     0.02400
C203        C  0.13079288  0.64518911  0.12957952     0.00100
C204        C  0.17647826  0.65249364  0.11682960    -0.11700
C205        C  0.20554086  0.68164388  0.14267904     0.02300
H206        H  0.12624363  0.72088957  0.22140896     0.15200
H207        H  0.18989037  0.63447122  0.08638468     0.15200
C208        C  0.25124535  0.68561382  0.12375888     0.36900
C209        C  0.06447470  0.66805974  0.17914470     0.36800
N210        N  0.28643828  0.68769766  0.10486754    -0.43400
N211        N  0.02579290  0.66553169  0.18856648    -0.43400
C212        C  0.17729748  0.69498280  0.29156680     0.00100
C213        C  0.15304872  0.71504632  0.32902641    -0.11700
C214        C  0.12632906  0.68763824  0.35965046     0.02400
C215        C  0.12215456  0.63872241  0.35244787     0.00100
C216        C  0.14446716  0.61917730  0.31357222    -0.11700
C217        C  0.17240765  0.64615686  0.28399489     0.02300
H218        H  0.15737355  0.75202254  0.33613879     0.15200
H219        H  0.14215872  0.58188295  0.30740027     0.15200
C220        C  0.19706257  0.62143302  0.24792314     0.36900
C221        C  0.10680770  0.71040945  0.39995752     0.36800
N222        N  0.21507586  0.60012780  0.21884436    -0.43400
N223        N  0.09186824  0.72875893  0.43258776    -0.43400
C224        C  0.11989586  0.35733057  0.35635834     0.00100
C225        C  0.14635056  0.37839157  0.32101300    -0.11700
C226        C  0.17290365  0.35155569  0.28971117     0.02400
C227        C  0.17302900  0.30216534  0.29278274     0.00100
C228        C  0.14531517  0.28104357  0.32682352    -0.11700
C229        C  0.11848497  0.30776042  0.35789033     0.02300
H230        H  0.14749070  0.41620206  0.31869839     0.15200
H231        H  0.14518626  0.24323436  0.32957492     0.15200
C232        C  0.08881259  0.28277722  0.38960904     0.36900
C233        C  0.20132023  0.37586169  0.25628680     0.36800
N234        N  0.06498971  0.26211638  0.41457178    -0.43400
N235        N  0.22373577  0.39568425  0.22941722    -0.43400
C236        C  0.12209716  0.35635362  0.13487347     0.00100
C237        C  0.16721445  0.34869524  0.12086039    -0.11700
C238        C  0.19603715  0.31808049  0.14479295     0.02400
C239        C  0.18004199  0.29402326  0.18535869     0.00100
C240        C  0.13271407  0.29879822  0.19632723    -0.11700
C241        C  0.10410304  0.33001741  0.17208631     0.02300
H242        H  0.18027553  0.36737500  0.09070606     0.15200
H243        H  0.11800484  0.27881813  0.22467473     0.15200
C244        C  0.05634320  0.33396718  0.18554940     0.36900
C245        C  0.24075845  0.31332072  0.12396570     0.36800
N246        N  0.01799323  0.33692310  0.19621658    -0.43400
N247        N  0.27447232  0.31166459  0.10249975    -0.43400
C248        C  0.83248419  0.29828885  0.20509599     0.00100
C249        C  0.82952925  0.34684829  0.21094533    -0.11700
C250        C  0.85211080  0.37812358  0.18084688     0.02400
C251        C  0.88263530  0.36148476  0.14609510     0.00100
C252        C  0.88746508  0.31253117  0.14136417    -0.11700
C253        C  0.86170040  0.28118073  0.16941562     0.02300
H254        H  0.80640055  0.36026551  0.23711888     0.15200
H255        H  0.90991122  0.29865514  0.11445567     0.15200
C256        C  0.86375449  0.23181243  0.15936996     0.36900
C257        C  0.83714890  0.42610740  0.18152687     0.36800
N258        N  0.86487001  0.19225183  0.15099930    -0.43400
N259        N  0.82332114  0.46399166  0.18100429    -0.43400
C260        C  0.82040620  0.29696531  0.31251067     0.00100
C261        C  0.86833803  0.30101619  0.30421507    -0.11700
C262        C  0.89628112  0.33137287  0.33049452     0.02400
C263        C  0.87707973  0.35770319  0.36719885     0.00100
C264        C  0.83085825  0.35188358  0.37793454    -0.11700
C265        C  0.80258828  0.32217385  0.35206968     0.02300
H266        H  0.88432527  0.28052815  0.27687252     0.15200
H267        H  0.81661960  0.37087564  0.40742783     0.15200
C268        C  0.75657692  0.31879773  0.37055267     0.36900
C269        C  0.94482766  0.33417390  0.32003683     0.36800
N270        N  0.72090168  0.31676281  0.38858355    -0.43400
N271        N  0.98382322  0.33650145  0.31202683    -0.43400
C272        C  0.87418975  0.63947766  0.36542220     0.00100
C273        C  0.89149089  0.68180201  0.34737838    -0.11700
C274        C  0.86436056  0.71032700  0.31845934     0.02400
C275        C  0.81892763  0.69698790  0.30789147     0.00100
C276        C  0.80155953  0.65547577  0.32763935    -0.11700
C277        C  0.82872860  0.62663548  0.35535215    -0.00100
H278        H  0.92641101  0.69218676  0.35526054     0.15200
H279        H  0.76672367  0.64471688  0.32051260     0.15200
C280        C  0.80875646  0.58442980  0.37414666     0.36900
C281        C  0.88315966  0.75363660  0.30120135     0.36800
N282        N  0.79285100  0.55067281  0.38943843    -0.43400
N283        N  0.89806495  0.78855071  0.28754642    -0.43400
C284        C  0.88655671  0.64661296  0.14343516     0.00100
C285        C  0.87996016  0.69469927  0.13464022    -0.11700
C286        C  0.85174060  0.72264281  0.16375882     0.02400
C287        C  0.82865960  0.70271151  0.20227949     0.00100
C288        C  0.83636075  0.65507845  0.21149750    -0.11700
C289        C  0.86591433  0.62774936  0.18397140     0.02300
H290        H  0.89615627  0.71052598  0.10455448     0.15200
H291        H  0.81723897  0.63790861  0.23885213     0.15200
C292        C  0.87295084  0.57996092  0.19799382     0.36900
C293        C  0.84605422  0.77145008  0.15278608     0.36800
N294        N  0.87919202  0.54199945  0.21010652    -0.43400
N295        N  0.84160993  0.81063383  0.14404260    -0.43400
C296        C  0.63823587  0.12308997  0.35750306     0.00100
C297        C  0.68602982  0.12518008  0.36522497    -0.11700
C298        C  0.71598446  0.14922525  0.33477195     0.02400
C299        C  0.69878713  0.17271597  0.29553378     0.00100
C300        C  0.65106731  0.17042910  0.28785824    -0.11700
C301        C  0.62121971  0.14523609  0.31730225     0.02300
H302        H  0.70042357  0.10792352  0.39516817     0.15200
H303        H  0.63600499  0.19071853  0.26054790     0.15200
C304        C  0.57298323  0.14435061  0.30593422     0.36900
C305        C  0.76446408  0.14990757  0.34494556     0.36800
N306        N  0.53445458  0.14347706  0.29629340    -0.43400
N307        N  0.80334371  0.15031538  0.35308300    -0.43400
C308        C  0.63993077  0.13125389  0.13151278     0.00100
C309        C  0.68347900  0.11210229  0.14124019    -0.11700
C310        C  0.71488332  0.13576472  0.17011477     0.02400
C311        C  0.70315008  0.17957570  0.18925670     0.00100
C312        C  0.66059100  0.19922645  0.17722902    -0.11700
C313        C  0.62887005  0.17549028  0.14965987     0.02300
H314        H  0.69263883  0.07823235  0.12698658     0.15200
H315        H  0.65080237  0.23242191  0.19144605     0.15200
C316        C  0.58557559  0.19795988  0.13980659     0.36900
C317        C  0.75898564  0.11484109  0.17904519     0.36800
N318        N  0.55110595  0.21643454  0.13203781    -0.43400
N319        N  0.79444519  0.09801361  0.18590019    -0.43400
C320        C  0.35682633  0.11536543  0.14724581     0.00100
C321        C  0.30896684  0.11587173  0.13952230    -0.11700
C322        C  0.27884918  0.14093629  0.16891420     0.02400
C323        C  0.29605393  0.16537141  0.20758269     0.00100
C324        C  0.34325915  0.16234716  0.21691774    -0.11700
C325        C  0.37349263  0.13760558  0.18771001     0.02300
H326        H  0.29500480  0.09839519  0.10943206     0.15200
H327        H  0.35688354  0.18114070  0.24628065     0.15200
C328        C  0.42178371  0.13858888  0.19877865     0.36900
C329        C  0.23075237  0.14346125  0.15727249     0.36800
N330        N  0.46046286  0.13950772  0.20779102    -0.43400
N331        N  0.19221356  0.14588367  0.14795490    -0.43400
C332        C  0.29026400  0.17462634  0.31590786     0.00100
C333        C  0.29856369  0.12702449  0.30497371    -0.11700
C334        C  0.33144662  0.10006254  0.32889724     0.02400
C335        C  0.35491395  0.11908544  0.36709044     0.00100
C336        C  0.34266562  0.16351632  0.38225375    -0.11700
C337        C  0.31064685  0.19094973  0.35837562     0.02300
H338        H  0.28045344  0.11087291  0.27650196     0.15200
H339        H  0.35834344  0.17695895  0.41364503     0.15200
C340        C  0.29848008  0.23319282  0.38272878     0.36900
C341        C  0.34017080  0.05272048  0.31396286     0.36800
N342        N  0.28923026  0.26553754  0.40514079    -0.43400
N343        N  0.34726480  0.01475018  0.30201142    -0.43400
C344        C  0.69308370  0.81619418  0.19889141     0.00100
C345        C  0.71177612  0.83643475  0.15832268    -0.11700
C346        C  0.68492986  0.86367208  0.12788078     0.02400
C347        C  0.63772504  0.87194458  0.13758574     0.00100
C348        C  0.61872937  0.85025209  0.17693813    -0.11700
C349        C  0.64502626  0.82220524  0.20666210     0.02300
H350        H  0.74789742  0.83121403  0.15043052     0.15200
H351        H  0.58237756  0.85440060  0.18440286     0.15200
C352        C  0.61973498  0.79966511  0.24344757     0.36900
C353        C  0.70704675  0.88239045  0.08697266     0.36800
N354        N  0.59589606  0.78384795  0.27163429    -0.43400
N355        N  0.72494920  0.89703407  0.05405391    -0.43400
C356        C  0.64085984  0.87315827  0.36945492     0.00100
C357        C  0.65957104  0.89176997  0.32845522    -0.11700
C358        C  0.69047591  0.86568034  0.30067057     0.02400
C359        C  0.69944929  0.81792772  0.31101241     0.00100
C360        C  0.68404438  0.80215773  0.35522537    -0.11700
C361        C  0.65563047  0.82906859  0.38407538     0.02300
H362        H  0.65155604  0.92755181  0.31916067     0.15200
H363        H  0.69190721  0.76801381  0.36824766     0.15200
C364        C  0.64109832  0.80990446  0.42826255     0.36900
C365        C  0.71516289  0.89057929  0.26487216     0.36800
N366        N  0.62982404  0.79454969  0.46370652    -0.43400
N367        N  0.73477837  0.91159534  0.23670831    -0.43400
C368        C  0.29948781  0.81637764  0.31807332     0.00100
C369        C  0.33069133  0.79409903  0.34806509    -0.11700
C370        C  0.36214316  0.81964085  0.37468230     0.02400
C371        C  0.36198214  0.86873854  0.37325388     0.00100
C372        C  0.32849072  0.89140228  0.34653231    -0.11700
C373        C  0.29735800  0.86573816  0.31918889     0.02300
H374        H  0.33272685  0.75644641  0.34892495     0.15200
H375        H  0.32687053  0.92923931  0.34678556     0.15200
C376        C  0.26274483  0.89066282  0.29366052     0.36900
C377        C  0.39517397  0.79462391  0.40231636     0.36800
N378        N  0.23474490  0.91063197  0.27345712    -0.43400
N379        N  0.42171986  0.77459156  0.42437170    -0.43400
C380        C  0.30774211  0.82893276  0.21275787     0.00100
C381        C  0.28661542  0.85447591  0.17746736    -0.11700
C382        C  0.31225260  0.88263742  0.14687548     0.02400
C383        C  0.36078540  0.88561807  0.15096919     0.00100
C384        C  0.38131091  0.86364079  0.18910038    -0.11700
C385        C  0.35583577  0.83438746  0.21894051     0.02300
H386        H  0.24983796  0.85086996  0.17259503     0.15200
H387        H  0.41832206  0.86558331  0.19301518     0.15200
C388        C  0.38177956  0.80492083  0.24966732     0.36900
C389        C  0.28702583  0.90817473  0.11236554     0.36800
N390        N  0.40420889  0.78139779  0.27294470    -0.43400
N391        N  0.26592360  0.92844929  0.08513794    -0.43400
C392        C  0.37207228  0.60810985  0.36023781     0.00100
C393        C  0.32505607  0.61221846  0.36802547    -0.11700
C394        C  0.29934119  0.64529889  0.34454278     0.02400
C395        C  0.31993794  0.67227400  0.30869070     0.00100
C396        C  0.36765394  0.66796294  0.30126556    -0.11700
C397        C  0.39383717  0.63658851  0.32690072     0.02300
H398        H  0.30892641  0.59226975  0.39576574     0.15200
H399        H  0.38488661  0.68977111  0.27587779     0.15200
C400        C  0.44280145  0.63450634  0.31833431     0.36900
C401        C  0.25451215  0.65336684  0.36395977     0.36800
N402        N  0.48197763  0.63325978  0.31106731    -0.43400
N403        N  0.22079132  0.65873340  0.38475416    -0.43400
C404        C  0.38188722  0.61553995  0.14829357     0.00100
C405        C  0.39128305  0.66343621  0.14698176    -0.11700
C406        C  0.36419779  0.69508689  0.17131356     0.02400
C407        C  0.33113483  0.67868747  0.20346469     0.00100
C408        C  0.32443340  0.63043340  0.20790448    -0.11700
C409        C  0.34743736  0.59892258  0.17904005     0.02300
H410        H  0.41656142  0.67706476  0.12259648     0.15200
H411        H  0.29908711  0.61742976  0.23233177     0.15200
C412        C  0.33150570  0.55126897  0.17992000     0.36900
C413        C  0.36631311  0.74221785  0.15457735     0.36800
N414        N  0.31606916  0.51400238  0.18067309    -0.43400
N415        N  0.36878746  0.77751085  0.13532643    -0.43400
C416        C  0.67367367  0.67115780  0.29234652     0.00100
C417        C  0.64125807  0.69536840  0.31892441    -0.11700
C418        C  0.60845616  0.67247781  0.34568066     0.02400
C419        C  0.60882248  0.62321773  0.34741896     0.00100
C420        C  0.64002828  0.59842779  0.31890544    -0.11700
C421        C  0.67210488  0.62204767  0.29094863     0.02300
H422        H  0.64184281  0.73274208  0.31910931     0.15200
H423        H  0.64032325  0.56052369  0.31961107     0.15200
C424        C  0.70416638  0.59528559  0.26315020     0.36900
C425        C  0.57713788  0.70134263  0.37231648     0.36800
N426        N  0.72974688  0.57367193  0.24084147    -0.43400
N427        N  0.55234820  0.72550155  0.39290323    -0.43400
C428        C  0.62309984  0.63055377  0.12762277     0.00100
C429        C  0.67045040  0.63004579  0.11973555    -0.11700
C430        C  0.70007695  0.65460446  0.14826289     0.02400
C431        C  0.68254283  0.67913397  0.18705892     0.00100
C432        C  0.63465749  0.68124698  0.19385631    -0.11700
C433        C  0.60478879  0.65730879  0.16449751     0.02300
H434        H  0.68454149  0.61081871  0.09035730     0.15200
H435        H  0.62041256  0.70164575  0.22216932     0.15200
C436        C  0.55603710  0.65987311  0.17399395     0.36900
C437        C  0.74766280  0.65368013  0.13484269     0.36800
N438        N  0.51700691  0.66236387  0.18179599    -0.43400
N439        N  0.78435296  0.65116234  0.11943383    -0.43400
C440        C  0.61853323  0.37221375  0.34749602     0.00100
C441        C  0.65367439  0.39416183  0.32209386    -0.11700
C442        C  0.68344383  0.36844900  0.29388061     0.02400
C443        C  0.67895433  0.31943641  0.29175755     0.00100
C444        C  0.64217795  0.29776044  0.31476899    -0.11700
C445        C  0.61100569  0.32377895  0.34122530     0.02300
H446        H  0.65856320  0.43161143  0.32466750     0.15200
H447        H  0.63751503  0.26042123  0.31166346     0.15200
C448        C  0.57188795  0.29957143  0.36088950     0.36900
C449        C  0.71828273  0.39393308  0.26871922     0.36800
N450        N  0.54029423  0.27993819  0.37584948    -0.43400
N451        N  0.74448057  0.41712540  0.24902745    -0.43400
C452        C  0.69027048  0.31906344  0.18660913     0.00100
C453        C  0.64275544  0.32312190  0.19568380    -0.11700
C454        C  0.61498189  0.35201872  0.16939591     0.02400
C455        C  0.63479123  0.37849003  0.13354394     0.00100
C456        C  0.68143321  0.37363993  0.12291232    -0.11700
C457        C  0.70883780  0.34272338  0.14761437     0.02300
H458        H  0.62652364  0.30247510  0.22259574     0.15200
H459        H  0.69584308  0.39171793  0.09305974     0.15200
C460        C  0.75340385  0.33323926  0.12787545     0.36900
C461        C  0.56630084  0.35345540  0.17981069     0.36800
N462        N  0.78737966  0.32559539  0.10816555    -0.43400
N463        N  0.52733495  0.35407477  0.18826670    -0.43400
C464        C  0.31867742  0.31286599  0.30410277     0.00100
C465        C  0.29725604  0.34454491  0.33427603    -0.11700
C466        C  0.32257234  0.36914195  0.36685448     0.02400
C467        C  0.37071854  0.36273784  0.36870746     0.00100
C468        C  0.39225422  0.33165544  0.33788647    -0.11700
C469        C  0.36672612  0.30633431  0.30594376     0.02300
H470        H  0.26029807  0.34904912  0.33333690     0.15200
H471        H  0.42920301  0.32682886  0.33877594     0.15200
C472        C  0.39118560  0.27402691  0.27621414     0.36900
C473        C  0.29750882  0.39828626  0.39935114     0.36800
N474        N  0.41247993  0.24936980  0.25251355    -0.43400
N475        N  0.27717612  0.42128873  0.42547581    -0.43400
C476        C  0.32768827  0.30967766  0.19810048     0.00100
C477        C  0.33536555  0.35667626  0.21093256    -0.11700
C478        C  0.36860939  0.38376606  0.18856048     0.02400
C479        C  0.39224185  0.36537508  0.15023428     0.00100
C480        C  0.38528461  0.31906900  0.13711508    -0.11700
C481        C  0.35352003  0.29111058  0.16034928     0.02300
H482        H  0.31557159  0.37264541  0.23865560     0.15200
H483        H  0.40282228  0.30537682  0.10656650     0.15200
C484        C  0.34492716  0.24666804  0.13898127     0.36900
C485        C  0.38057110  0.42883817  0.20742594     0.36800
N486        N  0.33847750  0.21365147  0.11686253    -0.43400
N487        N  0.39162018  0.46420511  0.22334623    -0.43400
C488        C  0.42172820  0.39251854  0.61712592     0.42800
N489        N  0.42735100  0.43552698  0.55680634     0.01600
C490        C  0.60906675  0.44154888  0.90694523    -0.06200
H491        H  0.64941069  0.46992396  0.58117380     0.07100
C492        C  0.55262908  0.61286902  0.57872814    -0.06600
Co493      Co  0.50753448  0.40868246  0.49825106     0.74200
N494        N  0.58993465  0.45081917  0.54122940    -0.25800
Co495      Co  0.58243333  0.50139818  0.99282655     0.74100
C496        C  0.59656352  0.59916336  0.59801318     0.42900
N497        N  0.44602459  0.57138080  0.55373197     0.01300
N498        N  0.58067610  0.55311803  0.54198344     0.01400
N499        N  0.55859360  0.38176265  0.91401439    -0.46600
H500        H  0.48415599  0.34819534  0.59510405     0.07100
N501        N  0.56095232  0.41555928  0.54378577     0.01700
N502        N  0.57388579  0.55008144  0.94113052     0.01400
C503        C  0.58401018  0.59285572  0.88112652     0.43000
N504        N  0.41671358  0.53652808  0.55550177    -0.25200
C505        C  0.44388978  0.37229595  0.92271156    -0.06100
N506        N  0.40196898  0.42832302  0.59436780    -0.46300
N507        N  0.60184854  0.55718050  0.90550106    -0.46500
C508        C  0.39940071  0.38651249  0.90434580     0.42800
N509        N  0.55295931  0.41304374  0.94729330     0.01600
N510        N  0.40959447  0.53522218  0.95357805    -0.25200
N511        N  0.46188225  0.40598200  0.55319684    -0.25700
N512        N  0.43933341  0.56975275  0.95007584     0.01300
H513        H  0.35076993  0.51581905  0.91259413     0.07200
H514        H  0.51748431  0.63440253  0.89717143     0.07200
N515        N  0.58218652  0.44808328  0.94417857    -0.25800
N516        N  0.54567715  0.58216509  0.54461317    -0.25400
N517        N  0.41806027  0.43349319  0.95809631     0.01600
C518        C  0.60690557  0.40448372  0.59945753     0.43000
C519        C  0.38940947  0.54139686  0.59269859    -0.06600
N520        N  0.53895848  0.57925963  0.94226358    -0.25400
H521        H  0.53037305  0.64192969  0.58729962     0.07200
N522        N  0.57015502  0.38660078  0.57792483    -0.46600
H523        H  0.36129674  0.51834706  0.60139254     0.07200
C524        C  0.39516753  0.57956971  0.89247506     0.42900
C525        C  0.46089998  0.37704763  0.58940990    -0.06100
Co526      Co  0.41686600  0.48538193  0.50591125     0.73800
N527        N  0.44035148  0.60075871  0.58857113    -0.46300
C528        C  0.59309890  0.39760904  0.88686103     0.43100
N529        N  0.38561176  0.42454834  0.92789222    -0.46300
Co530      Co  0.49161893  0.57800954  0.99652087     0.73900
C531        C  0.54180347  0.60721390  0.90529710    -0.06600
C532        C  0.62089012  0.44658040  0.57485462    -0.06200
N533        N  0.45244151  0.40366221  0.95597152    -0.25700
N534        N  0.61238658  0.56239861  0.57311108    -0.46500
H535        H  0.63703071  0.46413865  0.89634700     0.07200
C536        C  0.37955301  0.53884747  0.91883355    -0.06600
Cl537      Cl  0.50003465  0.49332628  0.49847760    -0.49600
C538        C  0.40544239  0.58402475  0.61504967     0.42900
H539        H  0.46546485  0.34279673  0.91375114     0.07100
N540        N  0.43168993  0.59733166  0.91443482    -0.46300
C541        C  0.60818229  0.90267078  0.60917033     0.42800
N542        N  0.58515875  0.95227219  0.55784574     0.01600
C543        C  0.37748683  0.07440187  0.56852537    -0.06200
H544        H  0.35069787  0.91718168  0.54788781     0.07100
C545        C  0.43904288  0.91515045  0.88400399    -0.06600
Co546      Co  0.49875219  0.00142876  0.58861408     0.74200
N547        N  0.41661210  0.94957539  0.55487965    -0.25800
Co548      Co  0.41667822  0.99888911  0.50174237     0.74100
C549        C  0.39526844  0.89524261  0.89975940     0.42900
N550        N  0.55533971  0.94936088  0.91788286     0.01300
N551        N  0.41810832  0.94639862  0.94933679     0.01400
N552        N  0.43126485  0.07482149  0.62437236    -0.46600
H553        H  0.54375924  0.91654725  0.65461546     0.07100
N554        N  0.44727660  0.95035123  0.58838311     0.01700
N555        N  0.41521983  0.04748620  0.94663704     0.01400
C556        C  0.38725315  0.09088168  0.89294347     0.43000
N557        N  0.58563935  0.95053761  0.95180713    -0.25200
C558        C  0.56208384  0.08233622  0.62280588    -0.06100
N559        N  0.61960632  0.92384326  0.56865175    -0.46300
N560        N  0.37905373  0.07327450  0.93559848    -0.46500
C561        C  0.60617353  0.10188144  0.60787840     0.42800
N562        N  0.44534120  0.05052466  0.58768063     0.01600
N563        N  0.58427037  0.05107945  0.94835446    -0.25200
N564        N  0.55188904  0.95192592  0.58933087    -0.25700
N565        N  0.55314679  0.05041054  0.91514893     0.01300
H566        H  0.64963544  0.08533950  0.95482161     0.07200
H567        H  0.44901538  0.07634864  0.84445446     0.07200
N568        N  0.41408694  0.04917327  0.55465766    -0.25800
N569        N  0.45050010  0.94648815  0.91680084    -0.25400
N570        N  0.58267941  0.05356484  0.55624007     0.01600
C571        C  0.39276209  0.90631466  0.61457549     0.43000
C572        C  0.61966015  0.92045097  0.94219455    -0.06600
N573        N  0.44704527  0.04675712  0.91349576    -0.25400
H574        H  0.45682663  0.91014503  0.85124985     0.07200
N575        N  0.43408269  0.92528990  0.62481947    -0.46600
H576        H  0.65101855  0.91669345  0.96172032     0.07200
C577        C  0.60557104  0.09820086  0.88989441     0.42900
C578        C  0.56301196  0.92146221  0.62272856    -0.06100
Co579      Co  0.58513792  0.00238213  0.50456017     0.73800
N580        N  0.56799140  0.92057890  0.88391155    -0.46300
C581        C  0.38877897  0.09133501  0.61508891     0.43100
N582        N  0.61706291  0.08190765  0.56682954    -0.46300
Co583      Co  0.50165758  0.99839426  0.91543264     0.73900
C584        C  0.43233261  0.07331225  0.87800633    -0.06600
C585        C  0.38181974  0.92159340  0.56750185    -0.06200
N586        N  0.55024540  0.05269057  0.58869994    -0.25700
N587        N  0.38412400  0.91704442  0.93989136    -0.46500
H588        H  0.34489907  0.07536257  0.55081773     0.07200
C589        C  0.61806239  0.08059480  0.93589889    -0.06600
Cl590      Cl  0.50082003  0.00064630  0.50293037    -0.49600
C591        C  0.60785191  0.90071492  0.89736826     0.42900
H592        H  0.54440725  0.08614710  0.65577974     0.07100
N593        N  0.56497811  0.07743308  0.87945442    -0.46300
C594        C  0.90878793  0.39517719  0.61587046     0.42800
N595        N  0.95345189  0.41822136  0.55963385     0.01600
C596        C  0.08262582  0.62496721  0.55488394    -0.06200
H597        H  0.92623500  0.66003136  0.54501466     0.07100
C598        C  0.92227807  0.56364565  0.87972193    -0.06600
Co599      Co  0.00460410  0.50622718  0.58543742     0.74200
N600        N  0.95571434  0.59118822  0.55057152    -0.25800
Co601      Co  0.00333320  0.58752105  0.49523601     0.74100
C602        C  0.90652331  0.61050198  0.89231229     0.42900
N603        N  0.94990171  0.44474052  0.91770575     0.01300
N604        N  0.95370480  0.58630001  0.94379496     0.01400
N605        N  0.08139873  0.57424713  0.61503590    -0.46600
H606        H  0.92547531  0.46120752  0.65850528     0.07100
N607        N  0.95565101  0.55998114  0.58438871     0.01700
N608        N  0.05258082  0.58367865  0.93987767     0.01400
C609        C  0.09602588  0.60684120  0.88319013     0.43000
N610        N  0.95030518  0.41429645  0.95220457    -0.25200
C611        C  0.08285317  0.44003006  0.61961439    -0.06100
N612        N  0.92719809  0.38291909  0.57414802    -0.46300
N613        N  0.07889487  0.61873534  0.92540675    -0.46500
C614        C  0.10084973  0.39446027  0.60532113     0.42800
N615        N  0.05452768  0.55965303  0.58084856     0.01600
N616        N  0.04921917  0.41247184  0.94820626    -0.25200
N617        N  0.95476639  0.45284254  0.59010637    -0.25700
N618        N  0.04912367  0.44326901  0.91407564     0.01300
H619        H  0.08241485  0.34592421  0.95647702     0.07200
H620        H  0.07884911  0.54115295  0.84033407     0.07200
N621        N  0.05397771  0.58948771  0.54579969    -0.25800
N622        N  0.95186931  0.55173812  0.91322433    -0.25400
N623        N  0.05297094  0.41853672  0.55443247     0.01600
C624        C  0.91292048  0.61606806  0.61081493     0.43000
C625        C  0.92099231  0.37949208  0.94256500    -0.06600
N626        N  0.05051598  0.54942610  0.90912088    -0.25400
H627        H  0.91651711  0.54427369  0.84804120     0.07200
N628        N  0.93096533  0.57373891  0.62082024    -0.46600
H629        H  0.91718556  0.34757721  0.96227295     0.07200
C630        C  0.09466389  0.38864270  0.88946572     0.42900
C631        C  0.92747696  0.44168597  0.62639461    -0.06100
Co632      Co  0.00165154  0.41569164  0.50426409     0.73800
N633        N  0.92248875  0.43146500  0.88350539    -0.46300
C634        C  0.10051586  0.61494938  0.60071870     0.43100
N635        N  0.08046355  0.38328076  0.56498972    -0.46300
Co636      Co  0.00026374  0.49718156  0.91344615     0.73900
C637        C  0.07738149  0.56047251  0.87260165    -0.06600
C638        C  0.92932663  0.62756946  0.56385963    -0.06200
N639        N  0.05352677  0.45225988  0.58592888    -0.25700
N640        N  0.92766114  0.62242525  0.93208281    -0.46500
H641        H  0.08587542  0.65660017  0.53463251     0.07200
C642        C  0.07755573  0.37724753  0.93626249    -0.06600
Cl643      Cl  0.00230466  0.50154341  0.49985248    -0.49600
C644        C  0.90268424  0.39096226  0.89714319     0.42900
H645        H  0.08770257  0.45859500  0.65192320     0.07100
N646        N  0.07544409  0.43021904  0.87841765    -0.46300
C647        C  0.26045188  0.24771439  0.70499450     0.45800
H648        H  0.26388967  0.24112822  0.66753250    -0.03300
C649        C  0.25100829  0.25769818  0.79344113     0.45800
H650        H  0.24411830  0.26389142  0.83041282    -0.03300
C651        C  0.29623745  0.28146046  0.72570033    -0.17000
C652        C  0.21351420  0.27004967  0.71837084    -0.16700
C653        C  0.26800203  0.20179913  0.73298109    -0.17100
C654        C  0.29084946  0.28597175  0.77296792    -0.17100
C655        C  0.20892229  0.27414728  0.76606342    -0.16600
C656        C  0.26438330  0.20705270  0.78106394    -0.17000
C657        C  0.75326622  0.25557767  0.70347419     0.45800
H658        H  0.75964785  0.25422518  0.66556707    -0.03300
C659        C  0.73927244  0.25497152  0.79201804     0.45800
H660        H  0.73184685  0.25234394  0.82943313    -0.03300
C661        C  0.71697027  0.29135565  0.71912853    -0.17000
C662        C  0.73364414  0.20846093  0.72129524    -0.16700
C663        C  0.79637603  0.26999023  0.73157000    -0.17100
C664        C  0.70942664  0.29048067  0.76627822    -0.17100
C665        C  0.72760515  0.20804308  0.76879760    -0.16600
C666        C  0.78873293  0.27072781  0.77946967    -0.17000
C667        C  0.26805747  0.74626173  0.70710629     0.45800
H668        H  0.27446909  0.75184875  0.66984954    -0.03300
C669        C  0.25458730  0.73859998  0.79550203     0.45800
H670        H  0.24822572  0.73724519  0.83333456    -0.03300
C671        C  0.29879602  0.70922250  0.72987631    -0.17000
C672        C  0.27912800  0.79123218  0.73435081    -0.16700
C673        C  0.21864570  0.72933895  0.71864942    -0.17100
C674        C  0.29138979  0.70472913  0.77721186    -0.17100
C675        C  0.27278538  0.78730158  0.78150595    -0.16600
C676        C  0.21183006  0.72546829  0.76634903    -0.17000
C677        C  0.74615837  0.74131918  0.70580985     0.45800
H678        H  0.74886910  0.74417730  0.66746499    -0.03300
C679        C  0.73917938  0.73463171  0.79492128     0.45800
H680        H  0.73762599  0.72966286  0.83280436    -0.03300
C681        C  0.71405559  0.70186127  0.72128419    -0.17000
C682        C  0.79257101  0.72935035  0.72979708    -0.16700
C683        C  0.72365611  0.78512303  0.72899847    -0.17100
C684        C  0.71031188  0.69839044  0.76856474    -0.17100
C685        C  0.78831721  0.72626549  0.77753511    -0.16600
C686        C  0.72211260  0.78269026  0.77728853    -0.17000
C687        C  0.18713975  0.70676747  0.68252374     0.00100
C688        C  0.13936483  0.70356557  0.69196643    -0.11700
C689        C  0.11054356  0.67333594  0.66662820     0.02400
C690        C  0.12858938  0.64707070  0.62930425     0.00100
C691        C  0.17407424  0.65416533  0.61605806    -0.11700
C692        C  0.20331015  0.68331267  0.64144890     0.02300
H693        H  0.12458112  0.72337296  0.72047228     0.15200
H694        H  0.18720013  0.63588100  0.58562904     0.15200
C695        C  0.24884549  0.68684271  0.62204655     0.36900
C696        C  0.06251119  0.67010332  0.67919700     0.36800
N697        N  0.28379812  0.68843223  0.60265882    -0.43400
N698        N  0.02393917  0.66750186  0.68906983    -0.43400
C699        C  0.17565277  0.69588045  0.78991317     0.00100
C700        C  0.15037425  0.71577438  0.82674898    -0.11700
C701        C  0.12354963  0.68807211  0.85699791     0.02400
C702        C  0.12110341  0.63895335  0.85054396     0.00100
C703        C  0.14414997  0.61955769  0.81207527    -0.11700
C704        C  0.17153521  0.64695927  0.78238926     0.02300
H705        H  0.15361631  0.75293759  0.83346452     0.15200
H706        H  0.14261473  0.58216400  0.80619129     0.15200
C707        C  0.19580166  0.62267711  0.74577276     0.36900
C708        C  0.10119186  0.71095132  0.89572270     0.36800
N709        N  0.21322515  0.60166268  0.71612733    -0.43400
N710        N  0.08362373  0.72930958  0.92700049    -0.43400
C711        C  0.12087567  0.35841240  0.85568174     0.00100
C712        C  0.14768321  0.37990966  0.82082430    -0.11700
C713        C  0.17462306  0.35342786  0.78952919     0.02400
C714        C  0.17477405  0.30402025  0.79214788     0.00100
C715        C  0.14675952  0.28251271  0.82569013    -0.11700
C716        C  0.11958268  0.30884900  0.85673453     0.02300
H717        H  0.14872130  0.41774197  0.81885762     0.15200
H718        H  0.14663437  0.24467437  0.82803933     0.15200
C719        C  0.08967380  0.28350141  0.88793062     0.36900
C720        C  0.20324201  0.37798297  0.75643483     0.36800
N721        N  0.06567082  0.26257489  0.91249229    -0.43400
N722        N  0.22590121  0.39783097  0.72978642    -0.43400
C723        C  0.12767962  0.36077487  0.63305640     0.00100
C724        C  0.17169646  0.34933253  0.61780448    -0.11700
C725        C  0.19936161  0.31792206  0.64226310     0.02400
C726        C  0.18294499  0.29634264  0.68409298     0.00100
C727        C  0.13623857  0.30448708  0.69584665    -0.11700
C728        C  0.10935847  0.33739374  0.67193234     0.02300
H729        H  0.18487580  0.36574080  0.58642541     0.15200
H730        H  0.12068186  0.28607457  0.72474225     0.15200
C731        C  0.06301515  0.34658453  0.68778836     0.36900
C732        C  0.24318914  0.30937178  0.62057800     0.36800
N733        N  0.02589499  0.35427525  0.70042482    -0.43400
N734        N  0.27646367  0.30414123  0.59894639    -0.43400
C735        C  0.83119823  0.30044261  0.70665547     0.00100
C736        C  0.82855272  0.34909865  0.71244823    -0.11700
C737        C  0.85218813  0.38007310  0.68279105     0.02400
C738        C  0.88261798  0.36293029  0.64806548     0.00100
C739        C  0.88686789  0.31394351  0.64344497    -0.11700
C740        C  0.86064983  0.28297202  0.67138483     0.02300
H741        H  0.80501537  0.36296809  0.73818950     0.15200
H742        H  0.90930101  0.29973265  0.61669949     0.15200
C743        C  0.86235292  0.23355045  0.66151962     0.36900
C744        C  0.83895549  0.42857885  0.68447429     0.36800
N745        N  0.86310035  0.19393889  0.65335580    -0.43400
N746        N  0.82670121  0.46703002  0.68513601    -0.43400
C747        C  0.81825922  0.29866880  0.81357997     0.00100
C748        C  0.86624993  0.30182332  0.80562634    -0.11700
C749        C  0.89428537  0.33232765  0.83145391     0.02400
C750        C  0.87504470  0.35967347  0.86735961     0.00100
C751        C  0.82869830  0.35451135  0.87801418    -0.11700
C752        C  0.80032825  0.32461230  0.85251462     0.02300
H753        H  0.88215857  0.28062763  0.77876425     0.15200
H754        H  0.81447792  0.37411454  0.90711344     0.15200
C755        C  0.75415852  0.32168413  0.87065379     0.36900
C756        C  0.94291603  0.33429767  0.82126382     0.36800
N757        N  0.71839840  0.31999796  0.88852984    -0.43400
N758        N  0.98196531  0.33589999  0.81336401    -0.43400
C759        C  0.87680386  0.64179375  0.86467287     0.00100
C760        C  0.89524753  0.68123384  0.84191731    -0.11700
C761        C  0.86742111  0.70983010  0.81375814     0.02400
C762        C  0.82028329  0.69936152  0.80863811     0.00100
C763        C  0.80221401  0.66062715  0.83288807    -0.11700
C764        C  0.82983636  0.63189013  0.86004952    -0.00100
H765        H  0.93147470  0.68922852  0.84553933     0.15200
H766        H  0.76632245  0.65166122  0.82981897     0.15200
C767        C  0.80894027  0.59256404  0.88345679     0.36900
C768        C  0.88756079  0.74991570  0.79109811     0.36800
N769        N  0.79219204  0.56113402  0.90232742    -0.43400
N770        N  0.90350821  0.78215745  0.77287655    -0.43400
C771        C  0.88715519  0.64659017  0.64468744     0.00100
C772        C  0.87907669  0.69405864  0.63426591    -0.11700
C773        C  0.85075312  0.72228668  0.66284637     0.02400
C774        C  0.82918252  0.70328531  0.70269169     0.00100
C775        C  0.83859383  0.65632394  0.71367885    -0.11700
C776        C  0.86828880  0.62878273  0.68654291     0.02300
H777        H  0.89394684  0.70912556  0.60313349     0.15200
H778        H  0.82077284  0.63971347  0.74225810     0.15200
C779        C  0.87713885  0.58186043  0.70233494     0.36900
C780        C  0.84333641  0.77027213  0.64966469     0.36800
N781        N  0.88464273  0.54466418  0.71596892    -0.43400
N782        N  0.83772952  0.80871950  0.63872052    -0.43400
C783        C  0.63629735  0.12414990  0.85622626     0.00100
C784        C  0.68353640  0.12842935  0.86593812    -0.11700
C785        C  0.71366479  0.15322030  0.83653496     0.02400
C786        C  0.69741267  0.17455418  0.79578982     0.00100
C787        C  0.65038478  0.16976062  0.78538043    -0.11700
C788        C  0.62007483  0.14478445  0.81476960     0.02300
H789        H  0.69742154  0.11259552  0.89685924     0.15200
H790        H  0.63666367  0.18749139  0.75534559     0.15200
C791        C  0.57216510  0.14281575  0.80237285     0.36900
C792        C  0.76138613  0.15700792  0.84934145     0.36800
N793        N  0.53375621  0.14131326  0.79236194    -0.43400
N794        N  0.79963386  0.16027025  0.85954584    -0.43400
C795        C  0.63927143  0.12839460  0.63629034     0.00100
C796        C  0.67043526  0.10474979  0.66499320    -0.11700
C797        C  0.70295788  0.12954719  0.69145035     0.02400
C798        C  0.70449332  0.17890954  0.68951087     0.00100
C799        C  0.67443375  0.20161445  0.65875332    -0.11700
C800        C  0.64172917  0.17718630  0.63311170     0.02300
H801        H  0.66942115  0.06690517  0.66663770     0.15200
H802        H  0.67527928  0.23884379  0.65497535     0.15200
C803        C  0.61045477  0.20318655  0.60425614     0.36900
C804        C  0.73501597  0.10364375  0.71931048     0.36800
N805        N  0.58531084  0.22414378  0.58138820    -0.43400
N806        N  0.76079962  0.08284094  0.74157554    -0.43400
C807        C  0.35705746  0.11324208  0.65015471     0.00100
C808        C  0.30922335  0.11373017  0.64224971    -0.11700
C809        C  0.27911071  0.13955918  0.67097233     0.02400
C810        C  0.29635513  0.16508216  0.70886912     0.00100
C811        C  0.34340756  0.16164314  0.71880132    -0.11700
C812        C  0.37361333  0.13593219  0.69041060     0.02300
H813        H  0.29529834  0.09553478  0.61255857     0.15200
H814        H  0.35691621  0.18082023  0.74795698     0.15200
C815        C  0.42180910  0.13664769  0.70182504     0.36900
C816        C  0.23085729  0.14110248  0.65988575     0.36800
N817        N  0.46042204  0.13739776  0.71109894    -0.43400
N818        N  0.19211777  0.14249837  0.65121399    -0.43400
C819        C  0.28889680  0.17502329  0.81621508     0.00100
C820        C  0.29542068  0.12714511  0.80546423    -0.11700
C821        C  0.32823432  0.09950571  0.82858075     0.02400
C822        C  0.35298470  0.11810026  0.86614047     0.00100
C823        C  0.34201083  0.16280731  0.88157042    -0.11700
C824        C  0.31033793  0.19102125  0.85817323     0.02300
H825        H  0.27635538  0.11147351  0.77735706     0.15200
H826        H  0.35858919  0.17592886  0.91260986     0.15200
C827        C  0.29975996  0.23387938  0.88221589     0.36900
C828        C  0.33590486  0.05218824  0.81302561     0.36800
N829        N  0.29175910  0.26680545  0.90426559    -0.43400
N830        N  0.34207394  0.01432793  0.80024494    -0.43400
C831        C  0.69327971  0.81581341  0.69916270     0.00100
C832        C  0.71302021  0.83841703  0.66041288    -0.11700
C833        C  0.68665653  0.86646091  0.63032232     0.02400
C834        C  0.63875045  0.87200390  0.63799610     0.00100
C835        C  0.61890542  0.84818170  0.67556604    -0.11700
C836        C  0.64493801  0.82044521  0.70560711     0.02300
H837        H  0.74959108  0.83485473  0.65406440     0.15200
H838        H  0.58215896  0.85077369  0.68159642     0.15200
C839        C  0.61909181  0.79745029  0.74168746     0.36900
C840        C  0.71011363  0.88972142  0.59258984     0.36800
N841        N  0.59448884  0.78170635  0.76923949    -0.43400
N842        N  0.72914879  0.90834842  0.56242390    -0.43400
C843        C  0.63842469  0.87191856  0.86779657     0.00100
C844        C  0.65957513  0.89117133  0.82828121    -0.11700
C845        C  0.69054843  0.86473883  0.80093617     0.02400
C846        C  0.69753776  0.81653272  0.81038471     0.00100
C847        C  0.67922404  0.79967789  0.85301137    -0.11700
C848        C  0.65041913  0.82664415  0.88133335     0.02300
H849        H  0.65344220  0.92757715  0.81994626     0.15200
H850        H  0.68541468  0.76479378  0.86508949     0.15200
C851        C  0.63291159  0.80659831  0.92402424     0.36900
C852        C  0.71774488  0.88947287  0.76689634     0.36800
N853        N  0.61917768  0.79063027  0.95831518    -0.43400
N854        N  0.73969380  0.91016423  0.74028013    -0.43400
C855        C  0.29941033  0.81652648  0.81586341     0.00100
C856        C  0.33032869  0.79377369  0.84577538    -0.11700
C857        C  0.36217736  0.81877457  0.87236038     0.02400
C858        C  0.36214691  0.86787360  0.87170406     0.00100
C859        C  0.32946598  0.89108237  0.84447579    -0.11700
C860        C  0.29843861  0.86598529  0.81653451     0.02300
H861        H  0.33197542  0.75610485  0.84643054     0.15200
H862        H  0.32853062  0.92893812  0.84467940     0.15200
C863        C  0.26559148  0.89178757  0.78951832     0.36900
C864        C  0.39589857  0.79316699  0.89857443     0.36800
N865        N  0.23934677  0.91270488  0.76790926    -0.43400
N866        N  0.42317247  0.77256760  0.91917130    -0.43400
C867        C  0.30794076  0.82775365  0.71089157     0.00100
C868        C  0.28718337  0.85473570  0.67643874    -0.11700
C869        C  0.31339948  0.88269044  0.64624991     0.02400
C870        C  0.36202777  0.88326292  0.64949049     0.00100
C871        C  0.38239684  0.85960411  0.68664750    -0.11700
C872        C  0.35624804  0.83114442  0.71651391     0.02300
H873        H  0.25020184  0.85283290  0.67221846     0.15200
H874        H  0.41952480  0.85995933  0.68992687     0.15200
C875        C  0.38133864  0.80070858  0.74703140     0.36900
C876        C  0.28883365  0.91117688  0.61353827     0.36800
N877        N  0.40304623  0.77646769  0.77027839    -0.43400
N878        N  0.26856255  0.93412998  0.58778769    -0.43400
C879        C  0.36877594  0.60728310  0.85972110     0.00100
C880        C  0.32221207  0.61355880  0.86906185    -0.11700
C881        C  0.29678349  0.64666811  0.84510166     0.02400
C882        C  0.31727242  0.67188381  0.80784131     0.00100
C883        C  0.36464579  0.66574814  0.79941897    -0.11700
C884        C  0.39037705  0.63386342  0.82482975     0.02300
H885        H  0.30636954  0.59505256  0.89793309     0.15200
H886        H  0.38204863  0.68630011  0.77315966     0.15200
C887        C  0.43879120  0.62905574  0.81427672     0.36900
C888        C  0.25236532  0.65636095  0.86489549     0.36800
N889        N  0.47752601  0.62540257  0.80548738    -0.43400
N890        N  0.21883322  0.66336525  0.88555271    -0.43400
C891        C  0.38050400  0.61347832  0.64881612     0.00100
C892        C  0.38895599  0.66150239  0.64614445    -0.11700
C893        C  0.36132695  0.69337328  0.66952480     0.02400
C894        C  0.32835096  0.67738463  0.70200111     0.00100
C895        C  0.32201713  0.62910350  0.70726239    -0.11700
C896        C  0.34582581  0.59717003  0.67942895     0.02300
H897        H  0.41420773  0.67491086  0.62161369     0.15200
H898        H  0.29686702  0.61630267  0.73198488     0.15200
C899        C  0.33100199  0.54917518  0.68150618     0.36900
C900        C  0.36303546  0.74011359  0.65164320     0.36800
N901        N  0.31652699  0.51154333  0.68322313    -0.43400
N902        N  0.36497615  0.77498279  0.63157276    -0.43400
C903        C  0.67625213  0.66896336  0.79317629     0.00100
C904        C  0.64125201  0.69211331  0.81699515    -0.11700
C905        C  0.60916361  0.66850777  0.84389202     0.02400
C906        C  0.61166472  0.61936656  0.84711224     0.00100
C907        C  0.64585029  0.59541222  0.82142916    -0.11700
C908        C  0.67814189  0.61989315  0.79440226     0.02300
H909        H  0.63942446  0.72937282  0.81509008     0.15200
H910        H  0.64831508  0.55766010  0.82376321     0.15200
C911        C  0.71411748  0.59440308  0.77058340     0.36900
C912        C  0.57694670  0.69684346  0.86996844     0.36800
N913        N  0.74315893  0.57398571  0.75176771    -0.43400
N914        N  0.55168202  0.72050211  0.89053783    -0.43400
C915        C  0.62494107  0.62598192  0.63022305     0.00100
C916        C  0.67237648  0.62489674  0.62286848    -0.11700
C917        C  0.70187439  0.65031522  0.65083918     0.02400
C918        C  0.68413428  0.67636098  0.68851811     0.00100
C919        C  0.63626104  0.67842340  0.69515707    -0.11700
C920        C  0.60654258  0.65347998  0.66652981     0.02300
H921        H  0.68663338  0.60485397  0.59412069     0.15200
H922        H  0.62188633  0.69965176  0.72276794     0.15200
C923        C  0.55782176  0.65589609  0.67623243     0.36900
C924        C  0.74949844  0.64883741  0.63779822     0.36800
N925        N  0.51880931  0.65818816  0.68419173    -0.43400
N926        N  0.78616199  0.64542324  0.62253535    -0.43400
C927        C  0.61655416  0.37031313  0.85035633     0.00100
C928        C  0.64859989  0.39345597  0.82194405    -0.11700
C929        C  0.67796077  0.36855689  0.79257901     0.02400
C930        C  0.67548264  0.31939212  0.79153939     0.00100
C931        C  0.64111072  0.29645958  0.81705960    -0.11700
C932        C  0.61112640  0.32139015  0.84586050     0.02300
H933        H  0.65182827  0.43115682  0.82355788     0.15200
H934        H  0.63836575  0.25880615  0.81531439     0.15200
C935        C  0.57666441  0.29531719  0.87129220     0.36900
C936        C  0.71109487  0.39466719  0.76565185     0.36800
N937        N  0.54898010  0.27416308  0.89129421    -0.43400
N938        N  0.73641945  0.41724662  0.74413967    -0.43400
C939        C  0.68939332  0.31996899  0.68661232     0.00100
C940        C  0.64150939  0.32187766  0.69372362    -0.11700
C941        C  0.61393229  0.35030620  0.66660650     0.02400
C942        C  0.63435392  0.37757953  0.63160659     0.00100
C943        C  0.68139352  0.37424501  0.62273769    -0.11700
C944        C  0.70865768  0.34412389  0.64828783     0.02300
H945        H  0.62523547  0.30007483  0.71978733     0.15200
H946        H  0.69636184  0.39272881  0.59340213     0.15200
C947        C  0.75367106  0.33528481  0.62938208     0.36900
C948        C  0.56497633  0.35077317  0.67548739     0.36800
N949        N  0.78787793  0.32814410  0.60991128    -0.43400
N950        N  0.52580034  0.35079014  0.68284395    -0.43400
C951        C  0.32041054  0.31340277  0.80380728     0.00100
C952        C  0.29890566  0.34614177  0.83273857    -0.11700
C953        C  0.32379761  0.37066467  0.86565682     0.02400
C954        C  0.37162450  0.36275597  0.86940870     0.00100
C955        C  0.39331832  0.33073845  0.83967090    -0.11700
C956        C  0.36817561  0.30575767  0.80714979     0.02300
H957        H  0.26214156  0.35152036  0.83061407     0.15200
H958        H  0.43004352  0.32484822  0.84191743     0.15200
C959        C  0.39263562  0.27239940  0.77862926     0.36900
C960        C  0.29846927  0.40141717  0.89644794     0.36800
N961        N  0.41402985  0.24680601  0.75604084    -0.43400
N962        N  0.27790475  0.42577481  0.92113185    -0.43400
C963        C  0.33064921  0.30881947  0.69795902     0.00100
C964        C  0.33877517  0.35590567  0.71020570    -0.11700
C965        C  0.37229813  0.38239162  0.68747184     0.02400
C966        C  0.39580168  0.36326207  0.64938601     0.00100
C967        C  0.38872205  0.31674968  0.63717450    -0.11700
C968        C  0.35660565  0.28945699  0.66071691     0.02300
H969        H  0.31895598  0.37248687  0.73755673     0.15200
H970        H  0.40629943  0.30239167  0.60695475     0.15200
C971        C  0.34822623  0.24450118  0.64042384     0.36900
C972        C  0.38451687  0.42773192  0.70555771     0.36800
N973        N  0.34212116  0.21092422  0.61905915    -0.43400
N974        N  0.39579603  0.46332625  0.72080819    -0.43400
loop_ 
_geom_bond_atom_site_label_1 
_geom_bond_atom_site_label_2 
_geom_bond_distance 
_geom_bond_site_symmetry_2 
_ccdc_geom_bond_type 
C1           N19   1.350       .  A
C1           C38   1.453       .  S
C1          C479   1.457       .  S
N2           N19   1.322       .  A
N2           N24   1.316       .  A
N2          Co39   2.075       .  S
C3           N28   1.335       .  A
C3           C41   1.463       .  S
C3           H48   1.081       .  S
H4           C45   1.082       .  S
C5           N29   1.336       .  A
C5            C9   1.453       .  S
C5           H34   1.081       .  S
Co6          N24   2.054       .  S
Co6          N14   2.057       .  S
Co6         N533   2.065   1_554  S
Co6         N509   2.060   1_554  S
Co6         Cl50   2.430   1_554  S
N7           C45   1.336       .  A
N7           N14   1.317       .  A
N7         Co495   2.058   1_554  S
Co8          N28   2.072       .  S
Co8          N15   2.062       .  S
Co8         N494   2.057       .  S
Co8         N498   2.078       .  S
Co8        Cl537   2.435       .  S
C9           N47   1.350       .  A
C9          C428   1.463       .  S
N10          N17   1.313       .  A
N10          N40   1.318       .  A
N10        Co530   2.076   1_554  S
N11          N29   1.316       .  A
N11          N47   1.319       .  A
N11        Co495   2.076   1_554  S
N12          C41   1.347       .  A
N12          N22   1.320       .  A
H13          C38   1.081       .  S
N14          N35   1.317       .  A
N15          N33   1.315       .  A
N15          N20   1.320       .  A
C16          N20   1.348       .  A
C16          C44   1.463       .  S
C16         C419   1.472       .  S
N17          C32   1.333       .  A
N17         Co39   2.038       .  S
C18          N46   1.336       .  A
C18          C21   1.459       .  S
C18          H52   1.081       .  S
C21          N42   1.342       .  A
C21         C467   1.464       .  S
N22          N28   1.317       .  A
N22        Co493   2.062       .  S
N23          C49   1.338       .  A
N23          N25   1.317       .  A
N23        Co526   2.076       .  S
N24          C38   1.333       .  A
N25          N53   1.317       .  A
N25         Co43   2.046       .  S
H26          C49   1.081       .  S
H27          C44   1.079       .  S
N29        Co530   2.050   1_554  S
N30          N42   1.316       .  A
N30          N46   1.315       .  A
N30        Co526   2.050       .  S
C31          N35   1.343       .  A
C31          C45   1.455       .  S
C31         C455   1.453       .  S
C32          C51   1.455       .  S
C32          H36   1.078       .  S
N33          C44   1.336       .  A
N33         Co43   2.072       .  S
C37          N53   1.340       .  A
C37          C49   1.463       .  S
C37         C392   1.457       .  S
Co39        N510   2.077   1_554  S
Co39        N517   2.044   1_554  S
Co39        Cl50   2.439   1_554  S
N40          C51   1.353       .  A
C41         C440   1.474       .  S
Co43        N497   2.075       .  S
Co43        N516   2.045       .  S
Co43       Cl537   2.427       .  S
N46        Co493   2.060       .  S
Cl50       Co495   2.437       .  S
Cl50       Co530   2.425       .  S
C51         C404   1.471       .  S
C54          N72   1.357       .  A
C54          C91   1.471       .  S
C54         C347   1.512       .  S
N55          N72   1.331       .  A
N55          N77   1.321       .  A
N55         Co92   2.110   1_565  S
C56          N81   1.344       .  A
C56          C94   1.466       .  S
C56         H101   1.081       .  S
H57          C98   1.078       .  S
C58          N82   1.347       .  A
C58          C62   1.466       .  S
C58          H87   1.081       .  S
Co59         N77   2.105   1_545  S
Co59         N67   2.102   1_545  S
Co59         N99   2.109       .  S
Co59         N75   2.095       .  S
Co59       Cl103   2.470       .  S
N60          C98   1.340       .  A
N60          N67   1.321       .  A
N60         Co61   2.087       .  S
Co61         N81   2.095   1_565  S
Co61        N551   2.097   1_554  S
Co61        N555   2.095   1_564  S
Co61       Cl103   2.450   1_565  S
C62         N100   1.348       .  A
C62         C371   1.487       .  S
N63          N70   1.323       .  A
N63          N93   1.328       .  A
N63         Co96   2.107       .  S
N64          N82   1.323       .  A
N64         N100   1.326       .  A
N64        Co548   2.090       .  S
N65          C94   1.352       .  A
N65          N75   1.326       .  A
H66          C91   1.081       .  S
N67          N88   1.328       .  A
N68          N86   1.324       .  A
N68          N73   1.327       .  A
N68        Co548   2.098   1_545  S
C69          N73   1.350       .  A
C69          C97   1.465       .  S
C69         C335   1.490       .  S
N70          C85   1.338       .  A
N70        Co579   2.076   1_565  S
C71          N99   1.346       .  A
C71          C74   1.467       .  S
C71         H105   1.082       .  S
C74          N95   1.348       .  A
C74         C308   1.487       .  S
N75          N81   1.323       .  A
N76         C102   1.344       .  A
N76          N78   1.324       .  A
N76        Co579   2.105       .  S
N77          C91   1.344       .  A
N78         N106   1.330       .  A
N78         Co96   2.112   1_545  S
H79         C102   1.081       .  S
H80          C97   1.082       .  S
N82         Co96   2.109       .  S
N83          N95   1.326       .  A
N83          N99   1.322       .  A
N83         Co92   2.084       .  S
C84          N88   1.356       .  A
C84          C98   1.465       .  S
C84         C383   1.501       .  S
C85         C104   1.453       .  S
C85          H89   1.082       .  S
N86          C97   1.348       .  A
N86         Co96   2.108   1_545  S
C90         N106   1.357       .  A
C90         C102   1.467       .  S
C90         C296   1.508       .  S
Co92        N557   2.076   1_544  S
Co92        N563   2.107   1_554  S
Co92       Cl103   2.456       .  S
N93         C104   1.353       .  A
C94         C320   1.499       .  S
Co96       Cl590   2.478   1_565  S
Cl103      Co583   2.480   1_544  S
C104        C356   1.479       .  S
C107        N125   1.355       .  A
C107        C144   1.472       .  S
C107        C251   1.510       .  S
N108        N125   1.331       .  A
N108        N130   1.324       .  A
N108       Co145   2.109   1_655  S
C109        N134   1.342       .  A
C109        C147   1.456       .  S
C109        H154   1.082       .  S
H110        C151   1.081       .  S
C111        N135   1.344       .  A
C111        C115   1.462       .  S
C111        H140   1.082       .  S
Co112       N130   2.116   1_455  S
Co112       N120   2.100   1_455  S
Co112       N152   2.103       .  S
Co112       N128   2.122       .  S
Co112      Cl156   2.472   1_554  S
N113        C151   1.348       .  A
N113        N120   1.323       .  A
N113       Co114   2.106   1_654  S
Co114       N134   2.088   1_556  S
Co114       N604   2.093   1_455  S
Co114       N608   2.101       .  S
Co114      Cl156   2.465       .  S
C115        N153   1.350       .  A
C115        C272   1.487       .  S
N116        N123   1.324       .  A
N116        N146   1.328       .  A
N116       Co149   2.100   1_655  S
N117        N135   1.324       .  A
N117        N153   1.328       .  A
N117       Co601   2.092   1_655  S
N118        C147   1.356       .  A
N118        N128   1.332       .  A
H119        C144   1.081       .  S
N120        N141   1.326       .  A
N121        N139   1.322       .  A
N121        N126   1.328       .  A
N121       Co601   2.100       .  S
C122        N126   1.354       .  A
C122        C150   1.467       .  S
C122        C215   1.503       .  S
N123        C138   1.343       .  A
N123       Co632   2.095   1_655  S
C124        N152   1.346       .  A
C124        C127   1.461       .  S
C124        H158   1.081       .  S
C127        N148   1.347       .  A
C127        C236   1.481       .  S
N128        N134   1.325       .  A
N129        C155   1.344       .  A
N129        N131   1.322       .  A
N129       Co632   2.106       .  S
N130        C144   1.347       .  A
N131        N159   1.329       .  A
N131       Co149   2.100       .  S
H132        C155   1.080       .  S
H133        C150   1.081       .  S
N135       Co149   2.105   1_655  S
N136        N148   1.325       .  A
N136        N152   1.325       .  A
N136       Co145   2.088       .  S
C137        N141   1.353       .  A
C137        C151   1.470       .  S
C137        C284   1.506       .  S
C138        C157   1.458       .  S
C138        H142   1.081       .  S
N139        C150   1.343       .  A
N139       Co149   2.097       .  S
C143        N159   1.355       .  A
C143        C155   1.469       .  S
C143        C224   1.504       .  S
Co145       N610   2.089   1_454  S
Co145       N616   2.109   1_554  S
Co145      Cl156   2.460   1_554  S
N146        C157   1.351       .  A
C147        C203   1.491       .  S
Co149      Cl643   2.469       .  S
Cl156      Co636   2.472       .  S
C157        C263   1.485       .  S
C160        H161   1.101       .  S
C160        C166   1.561       .  S
C160        C165   1.550       .  S
C160        C164   1.543       .  S
C162        H163   1.095       .  S
C162        C168   1.539       .  S
C162        C167   1.528       .  S
C162        C169   1.543       .  S
C164        C167   1.376       .  D
C164        C476   1.496       .  S
C165        C168   1.382       .  D
C165        C239   1.531       .  S
C166        C169   1.399       .  D
C166        C323   1.501       .  S
C167        C464   1.470       .  S
C168        C227   1.506       .  S
C169        C332   1.551       .  S
C170        H171   1.107       .  S
C170        C176   1.559       .  S
C170        C175   1.549       .  S
C170        C174   1.537       .  S
C172        H173   1.100       .  S
C172        C178   1.540       .  S
C172        C177   1.535       .  S
C172        C179   1.549       .  S
C174        C177   1.376       .  D
C174        C452   1.492       .  S
C175        C178   1.379       .  D
C175        C311   1.507       .  S
C176        C179   1.400       .  D
C176        C248   1.515       .  S
C177        C443   1.475       .  S
C178        C299   1.517       .  S
C179        C260   1.541       .  S
C180        H181   1.101       .  S
C180        C186   1.555       .  S
C180        C185   1.546       .  S
C180        C184   1.538       .  S
C182        H183   1.106       .  S
C182        C188   1.543       .  S
C182        C187   1.531       .  S
C182        C189   1.554       .  S
C184        C187   1.383       .  D
C184        C407   1.480       .  S
C185        C188   1.377       .  D
C185        C380   1.503       .  S
C186        C189   1.393       .  D
C186        C200   1.540       .  S
C187        C395   1.495       .  S
C188        C368   1.514       .  S
C189        C212   1.508       .  S
C190        H191   1.110       .  S
C190        C196   1.560       .  S
C190        C195   1.561       .  S
C190        C194   1.529       .  S
C192        H193   1.100       .  S
C192        C198   1.528       .  S
C192        C197   1.538       .  S
C192        C199   1.557       .  S
C194        C197   1.371       .  D
C194        C431   1.482       .  S
C195        C198   1.381       .  D
C195        C287   1.512       .  S
C196        C199   1.398       .  D
C196        C344   1.525       .  S
C197        C416   1.479       .  S
C198        C275   1.509       .  S
C199        C359   1.536       .  S
C200        C201   1.417       .  A
C200        C205   1.435       .  A
C201        H206   1.083       .  S
C201        C202   1.414       .  A
C202        C203   1.410       .  A
C202        C209   1.443       .  S
C203        C204   1.391       .  A
C204        H207   1.086       .  S
C204        C205   1.405       .  A
C205        C208   1.437       .  S
C208        N210   1.157       .  T
C209        N211   1.157       .  T
C212        C213   1.406       .  A
C212        C217   1.421       .  A
C213        H218   1.085       .  S
C213        C214   1.410       .  A
C214        C215   1.420       .  A
C214        C221   1.443       .  S
C215        C216   1.405       .  A
C216        H219   1.084       .  S
C216        C217   1.405       .  A
C217        C220   1.442       .  S
C220        N222   1.157       .  T
C221        N223   1.157       .  T
C224        C225   1.407       .  A
C224        C229   1.420       .  A
C225        H230   1.085       .  S
C225        C226   1.409       .  A
C226        C227   1.416       .  A
C226        C233   1.443       .  S
C227        C228   1.402       .  A
C228        H231   1.085       .  S
C228        C229   1.407       .  A
C229        C232   1.442       .  S
C232        N234   1.157       .  T
C233        N235   1.157       .  T
C236        C237   1.387       .  A
C236        C241   1.409       .  A
C237        H242   1.087       .  S
C237        C238   1.400       .  A
C238        C239   1.432       .  A
C238        C245   1.434       .  S
C239        C240   1.416       .  A
C240        H243   1.083       .  S
C240        C241   1.411       .  A
C241        C244   1.443       .  S
C244        N246   1.157       .  T
C245        N247   1.156       .  T
C248        C249   1.402       .  A
C248        C253   1.415       .  A
C249        H254   1.076       .  S
C249        C250   1.406       .  A
C250        C251   1.414       .  A
C250        C257   1.440       .  S
C251        C252   1.414       .  A
C252        H255   1.084       .  S
C252        C253   1.418       .  A
C253        C256   1.442       .  S
C256        N258   1.157       .  T
C257        N259   1.156       .  T
C260        C261   1.417       .  A
C260        C265   1.440       .  A
C261        H266   1.083       .  S
C261        C262   1.413       .  A
C262        C263   1.409       .  A
C262        C269   1.443       .  S
C263        C264   1.387       .  A
C264        H267   1.087       .  S
C264        C265   1.401       .  A
C265        C268   1.439       .  S
C268        N270   1.158       .  T
C269        N271   1.157       .  T
C272        C273   1.410       .  A
C272        C277   1.405       .  A
C273        H278   1.084       .  S
C273        C274   1.414       .  A
C274        C275   1.411       .  A
C274        C281   1.442       .  S
C275        C276   1.410       .  A
C276        H279   1.080       .  S
C276        C277   1.399       .  A
C277        C280   1.444       .  S
C280        N282   1.157       .  T
C281        N283   1.157       .  T
C284        C285   1.413       .  A
C284        C289   1.416       .  A
C285        H290   1.083       .  S
C285        C286   1.415       .  A
C286        C287   1.413       .  A
C286        C293   1.442       .  S
C287        C288   1.407       .  A
C288        H291   1.080       .  S
C288        C289   1.402       .  A
C289        C292   1.442       .  S
C292        N294   1.156       .  T
C293        N295   1.157       .  T
C296        C297   1.411       .  A
C296        C301   1.415       .  A
C297        H302   1.083       .  S
C297        C298   1.411       .  A
C298        C299   1.412       .  A
C298        C305   1.443       .  S
C299        C300   1.409       .  A
C300        H303   1.076       .  S
C300        C301   1.408       .  A
C301        C304   1.444       .  S
C304        N306   1.157       .  T
C305        N307   1.157       .  T
C308        C309   1.411       .  A
C308        C313   1.405       .  A
C309        H314   1.084       .  S
C309        C310   1.413       .  A
C310        C311   1.409       .  A
C310        C317   1.441       .  S
C311        C312   1.406       .  A
C312        H315   1.071       .  S
C312        C313   1.398       .  A
C313        C316   1.445       .  S
C316        N318   1.157       .  T
C317        N319   1.157       .  T
C320        C321   1.412       .  A
C320        C325   1.417       .  A
C321        H326   1.083       .  S
C321        C322   1.408       .  A
C322        C323   1.410       .  A
C322        C329   1.444       .  S
C323        C324   1.404       .  A
C324        H327   1.080       .  S
C324        C325   1.403       .  A
C325        C328   1.444       .  S
C328        N330   1.157       .  T
C329        N331   1.157       .  T
C332        C333   1.418       .  A
C332        C337   1.442       .  A
C333        H338   1.082       .  S
C333        C334   1.414       .  A
C334        C335   1.409       .  A
C334        C341   1.442       .  S
C335        C336   1.389       .  A
C336        H339   1.087       .  S
C336        C337   1.404       .  A
C337        C340   1.439       .  S
C340        N342   1.158       .  T
C341        N343   1.157       .  T
C344        C345   1.410       .  A
C344        C349   1.424       .  A
C345        H350   1.083       .  S
C345        C346   1.415       .  A
C346        C347   1.419       .  A
C346        C353   1.442       .  S
C347        C348   1.403       .  A
C348        H351   1.084       .  S
C348        C349   1.406       .  A
C349        C352   1.439       .  S
C352        N354   1.156       .  T
C353        N355   1.157       .  T
C356        C357   1.402       .  A
C356        C361   1.400       .  A
C357        H362   1.085       .  S
C357        C358   1.411       .  A
C358        C359   1.424       .  A
C358        C365   1.441       .  S
C359        C360   1.421       .  A
C360        H363   1.073       .  S
C360        C361   1.397       .  A
C361        C364   1.447       .  S
C364        N366   1.157       .  T
C365        N367   1.157       .  T
C368        C369   1.412       .  A
C368        C373   1.414       .  A
C369        H374   1.079       .  S
C369        C370   1.404       .  A
C370        C371   1.406       .  A
C370        C377   1.444       .  S
C371        C372   1.407       .  A
C372        H375   1.084       .  S
C372        C373   1.411       .  A
C373        C376   1.442       .  S
C376        N378   1.157       .  T
C377        N379   1.157       .  T
C380        C381   1.400       .  A
C380        C385   1.420       .  A
C381        H386   1.085       .  S
C381        C382   1.405       .  A
C382        C383   1.420       .  A
C382        C389   1.442       .  S
C383        C384   1.405       .  A
C384        H387   1.085       .  S
C384        C385   1.407       .  A
C385        C388   1.442       .  S
C388        N390   1.157       .  T
C389        N391   1.158       .  T
C392        C393   1.389       .  A
C392        C397   1.407       .  A
C393        H398   1.086       .  S
C393        C394   1.388       .  A
C394        C395   1.419       .  A
C394        C401   1.433       .  S
C395        C396   1.408       .  A
C396        H399   1.082       .  S
C396        C397   1.395       .  A
C397        C400   1.444       .  S
C400        N402   1.157       .  T
C401        N403   1.155       .  T
C404        C405   1.398       .  A
C404        C409   1.414       .  A
C405        H410   1.085       .  S
C405        C406   1.386       .  A
C406        C407   1.410       .  A
C406        C413   1.434       .  S
C407        C408   1.400       .  A
C408        H411   1.081       .  S
C408        C409   1.393       .  A
C409        C412   1.440       .  S
C412        N414   1.157       .  T
C413        N415   1.155       .  T
C416        C417   1.393       .  A
C416        C421   1.406       .  A
C417        H422   1.070       .  S
C417        C418   1.387       .  A
C418        C419   1.410       .  A
C418        C425   1.444       .  S
C419        C420   1.409       .  A
C420        H423   1.085       .  S
C420        C421   1.402       .  A
C421        C424   1.443       .  S
C424        N426   1.157       .  T
C425        N427   1.158       .  T
C428        C429   1.394       .  A
C428        C433   1.409       .  A
C429        H434   1.086       .  S
C429        C430   1.387       .  A
C430        C431   1.410       .  A
C430        C437   1.434       .  S
C431        C432   1.406       .  A
C432        H435   1.082       .  S
C432        C433   1.397       .  A
C433        C436   1.444       .  S
C436        N438   1.157       .  T
C437        N439   1.154       .  T
C440        C441   1.401       .  A
C440        C445   1.415       .  A
C441        H446   1.083       .  S
C441        C442   1.392       .  A
C442        C443   1.410       .  A
C442        C449   1.440       .  S
C443        C444   1.399       .  A
C444        H447   1.081       .  S
C444        C445   1.394       .  A
C445        C448   1.444       .  S
C448        N450   1.157       .  T
C449        N451   1.156       .  T
C452        C453   1.409       .  A
C452        C457   1.416       .  A
C453        H458   1.081       .  S
C453        C454   1.387       .  A
C454        C455   1.402       .  A
C454        C461   1.445       .  S
C455        C456   1.395       .  A
C456        H459   1.086       .  S
C456        C457   1.392       .  A
C457        C460   1.436       .  S
C460        N462   1.156       .  T
C461        N463   1.157       .  T
C464        C465   1.398       .  A
C464        C469   1.412       .  A
C465        H470   1.083       .  S
C465        C466   1.389       .  A
C466        C467   1.414       .  A
C466        C473   1.445       .  S
C467        C468   1.400       .  A
C468        H471   1.084       .  S
C468        C469   1.391       .  A
C469        C472   1.442       .  S
C472        N474   1.157       .  T
C473        N475   1.157       .  T
C476        C477   1.412       .  A
C476        C481   1.419       .  A
C477        H482   1.081       .  S
C477        C478   1.394       .  A
C478        C479   1.398       .  A
C478        C485   1.442       .  S
C479        C480   1.392       .  A
C480        H483   1.086       .  S
C480        C481   1.390       .  A
C481        C484   1.435       .  S
C484        N486   1.155       .  T
C485        N487   1.157       .  T
C488        N506   1.349       .  A
C488        C525   1.454       .  S
C488        C966   1.457       .  S
N489        N506   1.321       .  A
N489        N511   1.316       .  A
N489       Co526   2.073       .  S
C490        N515   1.335       .  A
C490        C528   1.461       .  S
C490        H535   1.081       .  S
H491        C532   1.082       .  S
C492        N516   1.334       .  A
C492        C496   1.453       .  S
C492        H521   1.081       .  S
Co493       N511   2.059       .  S
Co493       N501   2.052       .  S
Co493      Cl537   2.432       .  S
N494        C532   1.335       .  A
N494        N501   1.316       .  A
Co495       N515   2.070       .  S
Co495       N502   2.058       .  S
C496        N534   1.351       .  A
C496        C915   1.464       .  S
N497        N504   1.313       .  A
N497        N527   1.317       .  A
N498        N516   1.316       .  A
N498        N534   1.319       .  A
N499        C528   1.346       .  A
N499        N509   1.320       .  A
H500        C525   1.081       .  S
N501        N522   1.317       .  A
N502        N520   1.315       .  A
N502        N507   1.320       .  A
C503        N507   1.347       .  A
C503        C531   1.464       .  S
C503        C906   1.474       .  S
N504        C519   1.335       .  A
N504       Co526   2.044       .  S
C505        N533   1.337       .  A
C505        C508   1.461       .  S
C505        H539   1.081       .  S
C508        N529   1.341       .  A
C508        C954   1.463       .  S
N509        N515   1.317       .  A
N510        C536   1.339       .  A
N510        N512   1.317       .  A
N511        C525   1.334       .  A
N512        N540   1.317       .  A
N512       Co530   2.049       .  S
H513        C536   1.082       .  S
H514        C531   1.079       .  S
N517        N529   1.315       .  A
N517        N533   1.316       .  A
C518        N522   1.342       .  A
C518        C532   1.455       .  S
C518        C942   1.451       .  S
C519        C538   1.457       .  S
C519        H523   1.079       .  S
N520        C531   1.335       .  A
N520       Co530   2.074       .  S
C524        N540   1.341       .  A
C524        C536   1.462       .  S
C524        C879   1.458       .  S
Co526      Cl537   2.437       .  S
N527        C538   1.353       .  A
C528        C927   1.472       .  S
C538        C891   1.472       .  S
C541        N559   1.355       .  A
C541        C578   1.469       .  S
C541        C834   1.506       .  S
N542        N559   1.330       .  A
N542        N564   1.321       .  A
N542       Co579   2.103   1_565  S
C543        N568   1.344       .  A
C543        C581   1.466       .  S
C543        H588   1.081       .  S
H544        C585   1.079       .  S
C545        N569   1.346       .  A
C545        C549   1.464       .  S
C545        H574   1.082       .  S
Co546       N564   2.097   1_545  S
Co546       N554   2.092   1_545  S
Co546       N586   2.096       .  S
Co546       N562   2.095       .  S
Co546      Cl590   2.470       .  S
N547        C585   1.339       .  A
N547        N554   1.321       .  A
N547       Co548   2.084       .  S
Co548       N568   2.095   1_565  S
Co548      Cl590   2.449   1_565  S
C549        N587   1.350       .  A
C549        C858   1.486       .  S
N550        N557   1.323       .  A
N550        N580   1.328       .  A
N550       Co583   2.101       .  S
N551        N569   1.323       .  A
N551        N587   1.327       .  A
N552        C581   1.352       .  A
N552        N562   1.326       .  A
H553        C578   1.081       .  S
N554        N575   1.327       .  A
N555        N573   1.324       .  A
N555        N560   1.326       .  A
C556        N560   1.349       .  A
C556        C584   1.465       .  S
C556        C822   1.488       .  S
N557        C572   1.338       .  A
C558        N586   1.344       .  A
C558        C561   1.461       .  S
C558        H592   1.082       .  S
C561        N582   1.348       .  A
C561        C795   1.478       .  S
N562        N568   1.323       .  A
N563        C589   1.343       .  A
N563        N565   1.324       .  A
N564        C578   1.342       .  A
N565        N593   1.331       .  A
N565       Co583   2.111   1_545  S
H566        C589   1.081       .  S
H567        C584   1.082       .  S
N569       Co583   2.103       .  S
N570        N582   1.325       .  A
N570        N586   1.323       .  A
N570       Co579   2.088       .  S
C571        N575   1.354       .  A
C571        C585   1.464       .  S
C571        C870   1.494       .  S
C572        C591   1.453       .  S
C572        H576   1.082       .  S
N573        C584   1.348       .  A
N573       Co583   2.108   1_545  S
C577        N593   1.358       .  A
C577        C589   1.468       .  S
C577        C783   1.509       .  S
Co579      Cl590   2.454       .  S
N580        C591   1.352       .  A
C581        C807   1.499       .  S
C591        C843   1.476       .  S
C594        N612   1.357       .  A
C594        C631   1.470       .  S
C594        C738   1.511       .  S
N595        N612   1.332       .  A
N595        N617   1.323       .  A
N595       Co632   2.116   1_655  S
C596        N621   1.340       .  A
C596        C634   1.453       .  S
C596        H641   1.082       .  S
H597        C638   1.081       .  S
C598        N622   1.344       .  A
C598        C602   1.461       .  S
C598        H627   1.082       .  S
Co599       N617   2.109   1_455  S
Co599       N607   2.096   1_455  S
Co599       N639   2.100       .  S
Co599       N615   2.112       .  S
Co599      Cl643   2.472       .  S
N600        C638   1.346       .  A
N600        N607   1.323       .  A
N600       Co601   2.105   1_655  S
Co601       N621   2.082       .  S
Co601      Cl643   2.464       .  S
C602        N640   1.349       .  A
C602        C759   1.483       .  S
N603        N610   1.323       .  A
N603        N633   1.328       .  A
N603       Co636   2.100   1_655  S
N604        N622   1.325       .  A
N604        N640   1.328       .  A
N605        C634   1.354       .  A
N605        N615   1.330       .  A
H606        C631   1.081       .  S
N607        N628   1.326       .  A
N608        N626   1.322       .  A
N608        N613   1.327       .  A
C609        N613   1.353       .  A
C609        C637   1.466       .  S
C609        C702   1.501       .  S
N610        C625   1.341       .  A
C611        N639   1.345       .  A
C611        C614   1.462       .  S
C611        H645   1.082       .  S
C614        N635   1.348       .  A
C614        C723   1.480       .  S
N615        N621   1.324       .  A
N616        C642   1.344       .  A
N616        N618   1.322       .  A
N617        C631   1.346       .  A
N618        N646   1.329       .  A
N618       Co636   2.098       .  S
H619        C642   1.080       .  S
H620        C637   1.081       .  S
N622       Co636   2.102   1_655  S
N623        N635   1.325       .  A
N623        N639   1.324       .  A
N623       Co632   2.089       .  S
C624        N628   1.353       .  A
C624        C638   1.469       .  S
C624        C771   1.504       .  S
C625        C644   1.456       .  S
C625        H629   1.082       .  S
N626        C637   1.343       .  A
N626       Co636   2.094       .  S
C630        N646   1.354       .  A
C630        C642   1.471       .  S
C630        C711   1.504       .  S
Co632      Cl643   2.460       .  S
N633        C644   1.352       .  A
C634        C690   1.483       .  S
C644        C750   1.481       .  S
C647        H648   1.099       .  S
C647        C653   1.560       .  S
C647        C652   1.553       .  S
C647        C651   1.543       .  S
C649        H650   1.097       .  S
C649        C655   1.537       .  S
C649        C654   1.528       .  S
C649        C656   1.541       .  S
C651        C654   1.376       .  D
C651        C963   1.497       .  S
C652        C655   1.385       .  D
C652        C726   1.534       .  S
C653        C656   1.397       .  D
C653        C810   1.501       .  S
C654        C951   1.469       .  S
C655        C714   1.505       .  S
C656        C819   1.547       .  S
C657        H658   1.107       .  S
C657        C663   1.554       .  S
C657        C662   1.551       .  S
C657        C661   1.535       .  S
C659        H660   1.101       .  S
C659        C665   1.538       .  S
C659        C664   1.533       .  S
C659        C666   1.548       .  S
C661        C664   1.375       .  D
C661        C939   1.486       .  S
C662        C665   1.379       .  D
C662        C798   1.511       .  S
C663        C666   1.396       .  D
C663        C735   1.513       .  S
C664        C930   1.474       .  S
C665        C786   1.512       .  S
C666        C747   1.535       .  S
C667        H668   1.100       .  S
C667        C673   1.550       .  S
C667        C672   1.542       .  S
C667        C671   1.539       .  S
C669        H670   1.105       .  S
C669        C675   1.544       .  S
C669        C674   1.533       .  S
C669        C676   1.553       .  S
C671        C674   1.385       .  D
C671        C894   1.483       .  S
C672        C675   1.375       .  D
C672        C867   1.498       .  S
C673        C676   1.392       .  D
C673        C687   1.535       .  S
C674        C882   1.498       .  S
C675        C855   1.513       .  S
C676        C699   1.508       .  S
C677        H678   1.110       .  S
C677        C683   1.560       .  S
C677        C682   1.561       .  S
C677        C681   1.530       .  S
C679        H680   1.102       .  S
C679        C685   1.529       .  S
C679        C684   1.538       .  S
C679        C686   1.550       .  S
C681        C684   1.370       .  D
C681        C918   1.481       .  S
C682        C685   1.383       .  D
C682        C774   1.511       .  S
C683        C686   1.394       .  D
C683        C831   1.519       .  S
C684        C903   1.477       .  S
C685        C762   1.510       .  S
C686        C846   1.530       .  S
C687        C688   1.417       .  A
C687        C692   1.435       .  A
C688        H693   1.083       .  S
C688        C689   1.412       .  A
C689        C690   1.409       .  A
C689        C696   1.443       .  S
C690        C691   1.389       .  A
C691        H694   1.087       .  S
C691        C692   1.401       .  A
C692        C695   1.437       .  S
C695        N697   1.157       .  T
C696        N698   1.157       .  T
C699        C700   1.405       .  A
C699        C704   1.421       .  A
C700        H705   1.085       .  S
C700        C701   1.410       .  A
C701        C702   1.419       .  A
C701        C708   1.443       .  S
C702        C703   1.404       .  A
C703        H706   1.084       .  S
C703        C704   1.404       .  A
C704        C707   1.442       .  S
C707        N709   1.157       .  T
C708        N710   1.157       .  T
C711        C712   1.408       .  A
C711        C716   1.419       .  A
C712        H717   1.084       .  S
C712        C713   1.409       .  A
C713        C714   1.416       .  A
C713        C720   1.444       .  S
C714        C715   1.402       .  A
C715        H718   1.085       .  S
C715        C716   1.406       .  A
C716        C719   1.442       .  S
C719        N721   1.157       .  T
C720        N722   1.157       .  T
C723        C724   1.389       .  A
C723        C728   1.407       .  A
C724        H729   1.087       .  S
C724        C725   1.402       .  A
C725        C726   1.434       .  A
C725        C732   1.435       .  S
C726        C727   1.416       .  A
C727        H730   1.082       .  S
C727        C728   1.409       .  A
C728        C731   1.443       .  S
C731        N733   1.157       .  T
C732        N734   1.156       .  T
C735        C736   1.404       .  A
C735        C740   1.414       .  A
C736        H741   1.080       .  S
C736        C737   1.407       .  A
C737        C738   1.417       .  A
C737        C744   1.441       .  S
C738        C739   1.413       .  A
C739        H742   1.084       .  S
C739        C740   1.417       .  A
C740        C743   1.443       .  S
C743        N745   1.157       .  T
C744        N746   1.157       .  T
C747        C748   1.415       .  A
C747        C752   1.438       .  A
C748        H753   1.083       .  S
C748        C749   1.411       .  A
C749        C750   1.408       .  A
C749        C756   1.443       .  S
C750        C751   1.388       .  A
C751        H754   1.087       .  S
C751        C752   1.401       .  A
C752        C755   1.439       .  S
C755        N757   1.158       .  T
C756        N758   1.157       .  T
C759        C760   1.410       .  A
C759        C764   1.403       .  A
C760        H765   1.084       .  S
C760        C761   1.414       .  A
C761        C762   1.412       .  A
C761        C768   1.443       .  S
C762        C763   1.410       .  A
C763        H766   1.079       .  S
C763        C764   1.396       .  A
C764        C767   1.444       .  S
C767        N769   1.157       .  T
C768        N770   1.157       .  T
C771        C772   1.412       .  A
C771        C776   1.416       .  A
C772        H777   1.083       .  S
C772        C773   1.412       .  A
C773        C774   1.413       .  A
C773        C780   1.442       .  S
C774        C775   1.409       .  A
C775        H778   1.080       .  S
C775        C776   1.401       .  A
C776        C779   1.442       .  S
C779        N781   1.157       .  T
C780        N782   1.157       .  T
C783        C784   1.410       .  A
C783        C788   1.419       .  A
C784        H789   1.082       .  S
C784        C785   1.406       .  A
C785        C786   1.410       .  A
C785        C792   1.444       .  S
C786        C787   1.410       .  A
C787        H790   1.084       .  S
C787        C788   1.412       .  A
C788        C791   1.443       .  S
C791        N793   1.157       .  T
C792        N794   1.157       .  T
C795        C796   1.407       .  A
C795        C800   1.401       .  A
C796        H801   1.084       .  S
C796        C797   1.411       .  A
C797        C798   1.414       .  A
C797        C804   1.442       .  S
C798        C799   1.410       .  A
C799        H802   1.071       .  S
C799        C800   1.397       .  A
C800        C803   1.445       .  S
C803        N805   1.157       .  T
C804        N806   1.157       .  T
C807        C808   1.412       .  A
C807        C812   1.417       .  A
C808        H813   1.083       .  S
C808        C809   1.408       .  A
C809        C810   1.409       .  A
C809        C816   1.443       .  S
C810        C811   1.404       .  A
C811        H814   1.080       .  S
C811        C812   1.403       .  A
C812        C815   1.443       .  S
C815        N817   1.157       .  T
C816        N818   1.157       .  T
C819        C820   1.416       .  A
C819        C824   1.440       .  A
C820        H825   1.082       .  S
C820        C821   1.412       .  A
C821        C822   1.409       .  A
C821        C828   1.442       .  S
C822        C823   1.390       .  A
C823        H826   1.087       .  S
C823        C824   1.403       .  A
C824        C827   1.439       .  S
C827        N829   1.158       .  T
C828        N830   1.157       .  T
C831        C832   1.409       .  A
C831        C836   1.423       .  A
C832        H837   1.082       .  S
C832        C833   1.414       .  A
C833        C834   1.418       .  A
C833        C840   1.442       .  S
C834        C835   1.401       .  A
C835        H838   1.084       .  S
C835        C836   1.403       .  A
C836        C839   1.438       .  S
C839        N841   1.156       .  T
C840        N842   1.157       .  T
C843        C844   1.403       .  A
C843        C848   1.399       .  A
C844        H849   1.085       .  S
C844        C845   1.410       .  A
C845        C846   1.421       .  A
C845        C852   1.441       .  S
C846        C847   1.420       .  A
C847        H850   1.074       .  S
C847        C848   1.396       .  A
C848        C851   1.447       .  S
C851        N853   1.157       .  T
C852        N854   1.157       .  T
C855        C856   1.412       .  A
C855        C860   1.416       .  A
C856        H861   1.079       .  S
C856        C857   1.403       .  A
C857        C858   1.405       .  A
C857        C864   1.444       .  S
C858        C859   1.406       .  A
C859        H862   1.084       .  S
C859        C860   1.411       .  A
C860        C863   1.442       .  S
C863        N865   1.157       .  T
C864        N866   1.157       .  T
C867        C868   1.400       .  A
C867        C872   1.419       .  A
C868        H873   1.085       .  S
C868        C869   1.403       .  A
C869        C870   1.419       .  A
C869        C876   1.442       .  S
C870        C871   1.404       .  A
C871        H874   1.085       .  S
C871        C872   1.405       .  A
C872        C875   1.442       .  S
C875        N877   1.157       .  T
C876        N878   1.158       .  T
C879        C880   1.390       .  A
C879        C884   1.406       .  A
C880        H885   1.086       .  S
C880        C881   1.391       .  A
C881        C882   1.421       .  A
C881        C888   1.434       .  S
C882        C883   1.408       .  A
C883        H886   1.081       .  S
C883        C884   1.393       .  A
C884        C887   1.444       .  S
C887        N889   1.157       .  T
C888        N890   1.155       .  T
C891        C892   1.398       .  A
C891        C896   1.414       .  A
C892        H897   1.085       .  S
C892        C893   1.385       .  A
C893        C894   1.411       .  A
C893        C900   1.435       .  S
C894        C895   1.402       .  A
C895        H898   1.081       .  S
C895        C896   1.395       .  A
C896        C899   1.441       .  S
C899        N901   1.157       .  T
C900        N902   1.155       .  T
C903        C904   1.390       .  A
C903        C908   1.406       .  A
C904        H909   1.069       .  S
C904        C905   1.385       .  A
C905        C906   1.411       .  A
C905        C912   1.444       .  S
C906        C907   1.411       .  A
C907        H910   1.085       .  S
C907        C908   1.403       .  A
C908        C911   1.443       .  S
C911        N913   1.157       .  T
C912        N914   1.158       .  T
C915        C916   1.394       .  A
C915        C920   1.410       .  A
C916        H921   1.086       .  S
C916        C917   1.388       .  A
C917        C918   1.410       .  A
C917        C924   1.433       .  S
C918        C919   1.405       .  A
C919        H922   1.081       .  S
C919        C920   1.396       .  A
C920        C923   1.444       .  S
C923        N925   1.157       .  T
C924        N926   1.154       .  T
C927        C928   1.402       .  A
C927        C932   1.415       .  A
C928        H933   1.084       .  S
C928        C929   1.392       .  A
C929        C930   1.409       .  A
C929        C936   1.441       .  S
C930        C931   1.400       .  A
C931        H934   1.081       .  S
C931        C932   1.394       .  A
C932        C935   1.445       .  S
C935        N937   1.158       .  T
C936        N938   1.157       .  T
C939        C940   1.407       .  A
C939        C944   1.415       .  A
C940        H945   1.083       .  S
C940        C941   1.389       .  A
C941        C942   1.404       .  A
C941        C948   1.445       .  S
C942        C943   1.393       .  A
C943        H946   1.086       .  S
C943        C944   1.388       .  A
C944        C947   1.436       .  S
C947        N949   1.156       .  T
C948        N950   1.157       .  T
C951        C952   1.397       .  A
C951        C956   1.411       .  A
C952        H957   1.083       .  S
C952        C953   1.388       .  A
C953        C954   1.415       .  A
C953        C960   1.446       .  S
C954        C955   1.400       .  A
C955        H958   1.084       .  S
C955        C956   1.391       .  A
C956        C959   1.442       .  S
C959        N961   1.157       .  T
C960        N962   1.158       .  T
C963        C964   1.413       .  A
C963        C968   1.418       .  A
C964        H969   1.081       .  S
C964        C965   1.394       .  A
C965        C966   1.398       .  A
C965        C972   1.443       .  S
C966        C967   1.392       .  A
C967        H970   1.086       .  S
C967        C968   1.390       .  A
C968        C971   1.434       .  S
C971        N973   1.155       .  T
C972        N974   1.157       .  T
