geometry optimzed in LAMMPS
_audit_creation_date              2020-11-30 
_audit_creation_method            'lammps2cif' 
_symmetry_space_group_name_H-M    'P1' 
_symmetry_Int_Tables_number       1 
_symmetry_cell_setting            triclinic 
loop_ 
_symmetry_equiv_pos_as_xyz 
  x,y,z 
_cell_length_a                    38.18736067 
_cell_length_b                    34.33321629837829 
_cell_length_c                    28.542010343076086 
_cell_angle_alpha                 89.99940719592588 
_cell_angle_beta                  89.99940317419822 
_cell_angle_gamma                 89.99873422066175 
loop_ 
_atom_site_label 
_atom_site_type_symbol 
_atom_site_fract_x 
_atom_site_fract_y 
_atom_site_fract_z 
_atom_site_charge 
N1          N  0.12453233  0.29200125  0.22532556    -0.03300
C2          C  0.08971111  0.28486826  0.22107433    -0.00700
C3          C  0.08243145  0.26767654  0.17850006    -0.23600
C4          C  0.11376991  0.26383885  0.15574682    -0.23800
C5          C  0.13937047  0.27784058  0.18559698    -0.00800
H6          H  0.05787006  0.25482583  0.16765983     0.12900
H7          H  0.11795889  0.24681505  0.12432625     0.13000
N8          N  0.37451318  0.18159180  0.12416368    -0.03300
C9          C  0.40933438  0.18872560  0.12841511    -0.00700
C10         C  0.41661380  0.20591778  0.17098881    -0.23600
C11         C  0.38527559  0.20975456  0.19374231    -0.23800
C12         C  0.35967510  0.19575244  0.16389233    -0.00800
H13         H  0.44117460  0.21877075  0.18182763     0.12900
H14         H  0.38108665  0.22678050  0.22516116     0.13000
O15         O  0.21059441  0.17024384  0.25931418    -0.80700
O16         O  0.23578366  0.27663544  0.07985371    -0.65400
O17         O  0.23890546  0.20102387  0.17737256    -1.12000
C18         C  0.31541832  0.28233808  0.25505203     1.06100
O19         O  0.28845074  0.30335091  0.09017704    -0.78600
O20         O  0.31976003  0.24150791  0.13446784    -0.66200
Ni21       Ni  0.19427695  0.18113270  0.19694257     1.34900
C22         C  0.32557044  0.21551332  0.16509949     0.84900
O23         O  0.21431486  0.20377861  0.08694337    -0.79200
O24         O  0.17203133  0.18593912  0.13579539    -0.89500
C25         C  0.25984308  0.29986455  0.06770311     0.84500
O26         O  0.17928508  0.23208503  0.21502110    -0.67700
O27         O  0.32701564  0.28765248  0.21369437    -0.86900
C28         C  0.17347524  0.25807997  0.18438970     0.85300
C29         C  0.18362908  0.19125340  0.09443796     1.06900
H30         H  0.24522788  0.29397939  0.18135646     0.38700
O31         O  0.26014023  0.27257061  0.17211792    -1.09600
O32         O  0.30692578  0.21252379  0.20204402    -0.66300
Ni33       Ni  0.26207410  0.23478620  0.22093406     1.26300
O34         O  0.19211964  0.26106892  0.14744473    -0.66500
O35         O  0.28473264  0.26981284  0.26254725    -0.78800
C36         C  0.23920309  0.17372789  0.28178626     0.84700
O37         O  0.26326306  0.19695600  0.26963473    -0.66000
Ni38       Ni  0.30476932  0.29246046  0.15254763     1.27400
Ni39       Ni  0.23697205  0.23880710  0.12855613     1.26100
H40         H  0.25381734  0.17961581  0.16813395     0.39200
C41         C  0.13699313  0.32733975  0.24662923     0.80400
N42         N  0.16538174  0.32738479  0.27531169    -0.77900
C43         C  0.17898256  0.36179705  0.95756277     0.82800
N44         N  0.16538061  0.39620968  0.27531269    -0.77900
C45         C  0.13699266  0.39625594  0.24662957     0.82900
N46         N  0.12279820  0.36179822  0.23306074    -0.79600
C47         C  0.25362016  0.32783390  0.02965149     0.80400
N48         N  0.27124940  0.36179555  0.03360065    -0.77900
C49         C  0.25361877  0.39575744  0.02965489     0.82800
N50         N  0.22296470  0.39607703  0.00532987    -0.77900
C51         C  0.20933421  0.36179697  0.98943853     0.82900
N52         N  0.22296612  0.32751618  0.00532705    -0.79600
N53         N  0.12453165  0.43159535  0.22532653    -0.03300
C54         C  0.08971053  0.43872890  0.22107491    -0.00700
C55         C  0.08243053  0.45592310  0.17850186    -0.23600
C56         C  0.11376894  0.45976188  0.15574926    -0.23800
C57         C  0.13936970  0.44575794  0.18559903    -0.00800
H58         H  0.05786868  0.96877469  0.16766239     0.12900
H59         H  0.11795739  0.97678770  0.12432999     0.13000
N60         N  0.37451358  0.04199683  0.12416763    -0.03300
C61         C  0.40933512  0.03486352  0.12841864    -0.00700
C62         C  0.41661523  0.51766908  0.17099185    -0.23600
C63         C  0.38527670  0.51383008  0.19374444    -0.23800
C64         C  0.35967574  0.02783390  0.16389519    -0.00800
H65         H  0.44117705  0.50481763  0.18183171     0.12900
H66         H  0.38108807  0.49680362  0.22516320     0.13000
O67         O  0.28845066  0.42023908  0.09018010    -0.80700
O68         O  0.26326222  0.02663372  0.26963787    -0.65400
O69         O  0.26013937  0.45102057  0.17212126    -1.12000
C70         C  0.18362783  0.03233857  0.09443860     1.06100
O71         O  0.21059529  0.05335190  0.25931360    -0.78600
O72         O  0.17928561  0.49151010  0.21502408    -0.66200
Ni73       Ni  0.30476862  0.43112843  0.15255162     1.34900
C74         C  0.17347489  0.46551614  0.18439268     0.84900
O75         O  0.28473082  0.45377585  0.26255004    -0.79200
O76         O  0.32701469  0.43593548  0.21369858    -0.89500
C77         C  0.23920305  0.04986447  0.28178767     0.84500
O78         O  0.31976084  0.48208028  0.13447152    -0.67700
O79         O  0.17203042  0.03765458  0.13579603    -0.86900
C80         C  0.32557075  0.00807490  0.16510238     0.85300
C81         C  0.31541734  0.44125151  0.25505590     1.06900
H82         H  0.25381635  0.04397533  0.16813459     0.38700
O83         O  0.23890515  0.02256880  0.17737352    -1.09600
O84         O  0.19211984  0.46252536  0.14744854    -0.66300
Ni85       Ni  0.23697156  0.48478453  0.12855861     1.26300
O86         O  0.30692608  0.01106488  0.20204698    -0.66500
O87         O  0.21431388  0.51981286  0.08694421    -0.78800
C88         C  0.25984218  0.42372559  0.06770732     0.84700
O89         O  0.23578253  0.44695508  0.07985868    -0.66000
Ni90       Ni  0.19427655  0.04246180  0.19694298     1.27400
Ni91       Ni  0.26207339  0.98880466  0.22093648     1.26100
H92         H  0.24522588  0.42961130  0.18136095     0.39200
C93         C  0.24542639  0.07783427  0.31983826     0.78800
N94         N  0.27608008  0.07751534  0.34416382    -0.77900
C95         C  0.28971052  0.11179548  0.36005429     0.82800
N96         N  0.27607921  0.14607621  0.34416403    -0.77900
C97         C  0.24542604  0.14575795  0.31983746     0.82900
N98         N  0.22779653  0.11179642  0.31588897    -0.79600
C99         C  0.36205131  0.07733615  0.10286512     0.80400
N100        N  0.37624653  0.11179416  0.11643191    -0.77900
C101        C  0.36205248  0.14625259  0.10286125     0.82800
N102        N  0.33366400  0.14620711  0.07417879    -0.77900
C103        C  0.32006181  0.11179480  0.05859724     0.82900
N104        N  0.33366270  0.07738212  0.07418283    -0.79600
N105        N  0.12451695  0.18159269  0.05865741    -0.03300
C106        C  0.15933804  0.18872726  0.05440654    -0.00700
C107        C  0.16661739  0.20592255  0.01183378    -0.23600
C108        C  0.13527908  0.20975990  0.98908080    -0.23800
C109        C  0.10967859  0.19575525  0.01893004    -0.00800
H110        H  0.19117827  0.21877575  0.00099464     0.12900
H111        H  0.13108990  0.22678565  0.95766157     0.13000
N112        N  0.37453053  0.29199913  0.29083267    -0.03300
C113        C  0.33970955  0.28486397  0.29508324    -0.00700
C114        C  0.33242985  0.26766875  0.33765598    -0.23600
C115        C  0.36376798  0.26383060  0.36040906    -0.23800
C116        C  0.38936853  0.27783628  0.33056027    -0.00800
H117        H  0.30786878  0.25481569  0.34849461     0.12900
H118        H  0.36795679  0.24680345  0.39182725     0.13000
O119        O  0.03844889  0.30334750  0.09264834    -0.80700
O120        O  0.01326506  0.19695787  0.24652248    -0.65400
O121        O  0.01013998  0.27257079  0.01070603    -1.12000
C122        C  0.43362656  0.19125326  0.08838464     1.06100
O123        O  0.46059687  0.17024397  0.25684364    -0.78600
O124        O  0.42928713  0.23208574  0.30113404    -0.66200
Ni125      Ni  0.05476860  0.29246029  0.03027721     1.34900
C126        C  0.42347483  0.25807876  0.33176639     0.84900
O127        O  0.03473420  0.26981518  0.25361088    -0.79200
O128        O  0.07701619  0.28765526  0.30246352    -0.89500
C129        C  0.98920556  0.17372942  0.23437121     0.84500
O130        O  0.06976071  0.24150745  0.04835578    -0.67700
O131        O  0.42203015  0.18593963  0.04702703    -0.86900
C132        C  0.07557248  0.21551387  0.01772383     0.85300
C133        C  0.06541951  0.28234107  0.26110586     1.06900
H134        H  0.50381650  0.17961736  0.01468970     0.38700
O135        O  0.48890573  0.20102410  0.00545146    -1.09600
O136        O  0.44211883  0.26106808  0.36871102    -0.66300
Ni137      Ni  0.48697064  0.23880706  0.05426748     1.26300
O138        O  0.05692812  0.21252474  0.98077950    -0.66500
O139        O  0.46431217  0.20377831  0.09588025    -0.78800
C140        C  0.50983951  0.29986362  0.11511977     0.84700
O141        O  0.48577980  0.27663567  0.10296838    -0.66000
Ni142      Ni  0.44427761  0.18113321  0.31921408     1.27400
Ni143      Ni  0.01207552  0.23478716  0.29522357     1.26100
H144        H  0.99522711  0.29398046  0.33479999     0.39200
C145        C  0.99542935  0.07783637  0.19632148     0.80400
N146        N  0.47779961  0.11179856  0.20026977    -0.77900
C147        C  0.99542943  0.14575987  0.19632070     0.82800
N148        N  0.02608392  0.14607752  0.17199636    -0.77900
C149        C  0.03971488  0.11179699  0.15610595     0.82900
N150        N  0.02608330  0.07751681  0.17199573    -0.79600
C151        C  0.11205595  0.14625366  0.07996057     0.80400
N152        N  0.12624928  0.11179496  0.06638956    -0.77900
C153        C  0.11205443  0.07733726  0.07995956     0.82800
N154        N  0.08366776  0.07738394  0.10864576    -0.77900
C155        C  0.07006660  0.11179668  0.12422961     0.82900
N156        N  0.08366779  0.14620877  0.10864444    -0.79600
N157        N  0.12451526  0.04199717  0.05865792    -0.03300
C158        C  0.15933641  0.03486214  0.05440736    -0.00700
C159        C  0.16661673  0.51766646  0.01183527    -0.23600
C160        C  0.13527855  0.51382813  0.98908265    -0.23800
C161        C  0.10967743  0.02783381  0.01893119    -0.00800
H162        H  0.19117851  0.50481410  0.00099635     0.12900
H163        H  0.13109026  0.49680155  0.95766444     0.13000
N164        N  0.37453074  0.43159473  0.29083614    -0.03300
C165        C  0.33970933  0.43872886  0.29508693    -0.00700
C166        C  0.33242936  0.45592557  0.33765836    -0.23600
C167        C  0.36376764  0.45976464  0.36041045    -0.23800
C168        C  0.38936867  0.44575874  0.33056242    -0.00800
H169        H  0.30786762  0.96877814  0.34849702     0.12900
H170        H  0.36795599  0.97679204  0.39182793     0.13000
O171        O  0.46059615  0.05335203  0.25684416    -0.80700
O172        O  0.48578223  0.44695760  0.10297005    -0.65400
O173        O  0.48890561  0.02257094  0.00545263    -1.12000
C174        C  0.06541906  0.44125432  0.26110581     1.06100
O175        O  0.03845002  0.42024093  0.09264755    -0.78600
O176        O  0.06975980  0.48208286  0.04835762    -0.66200
Ni177      Ni  0.44427691  0.04246302  0.31921569     1.34900
C178        C  0.07557136  0.00807663  0.01772560     0.84900
O179        O  0.46431356  0.51981545  0.09588135    -0.79200
O180        O  0.42203037  0.03765641  0.04702986    -0.89500
C181        C  0.50984151  0.42372730  0.11512060     0.84500
O182        O  0.42928527  0.49151102  0.30113661    -0.67700
O183        O  0.07701602  0.43593883  0.30246324    -0.86900
C184        C  0.42347431  0.46551671  0.33176836     0.85300
C185        C  0.43362740  0.03234041  0.08838726     1.06900
H186        H  0.99523041  0.42961788  0.33480203     0.38700
O187        O  0.01014060  0.45102364  0.01070656    -1.09600
O188        O  0.05692662  0.01106753  0.98078155    -0.66300
Ni189      Ni  0.01207505  0.98880804  0.29522442     1.26300
O190        O  0.44211846  0.46252681  0.36871305    -0.66500
O191        O  0.03473330  0.45378002  0.25361089    -0.78800
C192        C  0.98920558  0.04986706  0.23437263     0.84700
O193        O  0.01326548  0.02663817  0.24652444    -0.66000
Ni194      Ni  0.05476916  0.43113138  0.03027683     1.27400
Ni195      Ni  0.48697125  0.48478700  0.05426839     1.26100
H196        H  0.50381837  0.04397978  0.01469232     0.39200
C197        C  0.38699271  0.39625542  0.26953422     0.80400
N198        N  0.41538082  0.39620968  0.24085043    -0.77900
C199        C  0.42898058  0.36179717  0.22526337     0.82800
N200        N  0.41537804  0.32738479  0.24084493    -0.77900
C201        C  0.38699094  0.32733898  0.26953034     0.82900
N202        N  0.37279741  0.36179728  0.28310213    -0.79600
C203        C  0.50361731  0.39575695  0.15317106     0.80400
N204        N  0.02124639  0.36179438  0.14922174    -0.77900
C205        C  0.50361612  0.32783326  0.15317039     0.82800
N206        N  0.47296251  0.32751539  0.17749666    -0.77900
C207        C  0.45933139  0.36179629  0.19338602     0.82900
N208        N  0.47296318  0.39607631  0.17749628    -0.79600
N209        N  0.12453233  0.29200126  0.55865887    -0.03300
C210        C  0.08971113  0.28486823  0.55440766    -0.00700
C211        C  0.08243154  0.26767645  0.51183341    -0.23600
C212        C  0.11376997  0.26383888  0.48908010    -0.23800
C213        C  0.13937049  0.27784063  0.51893029    -0.00800
H214        H  0.05787017  0.25482564  0.50099313     0.12900
H215        H  0.11795895  0.24681513  0.45765949     0.13000
N216        N  0.37451321  0.18159177  0.45749698    -0.03300
C217        C  0.40933438  0.18872560  0.46174840    -0.00700
C218        C  0.41661376  0.20591776  0.50432210    -0.23600
C219        C  0.38527556  0.20975459  0.52707559    -0.23800
C220        C  0.35967510  0.19575244  0.49722562    -0.00800
H221        H  0.44117457  0.21877076  0.51516097     0.12900
H222        H  0.38108661  0.22678057  0.55849440     0.13000
O223        O  0.21059445  0.17024382  0.59264743    -0.80700
O224        O  0.23578369  0.27663536  0.41318697    -0.65400
O225        O  0.23890548  0.20102383  0.51070584    -1.12000
C226        C  0.31541829  0.28233807  0.58838536     1.06100
O227        O  0.28845072  0.30335098  0.42351044    -0.78600
O228        O  0.31976003  0.24150793  0.46780113    -0.66200
Ni229      Ni  0.19427696  0.18113273  0.53027587     1.34900
C230        C  0.32557043  0.21551334  0.49843279     0.84900
O231        O  0.21431490  0.20377838  0.42027665    -0.79200
O232        O  0.17203131  0.18593916  0.46912871    -0.89500
C233        C  0.25984307  0.29986459  0.40103650     0.84500
O234        O  0.17928513  0.23208509  0.54835444    -0.67700
O235        O  0.32701565  0.28765251  0.54702772    -0.86900
C236        C  0.17347527  0.25808000  0.51772300     0.85300
C237        C  0.18362908  0.19125327  0.42777128     1.06900
H238        H  0.24522775  0.29397954  0.51468963     0.38700
O239        O  0.26014018  0.27257063  0.50545115    -1.09600
O240        O  0.30692578  0.21252387  0.53537734    -0.66300
Ni241      Ni  0.26207405  0.23478624  0.55426734     1.26300
O242        O  0.19211965  0.26106886  0.48077799    -0.66500
O243        O  0.28473257  0.26981291  0.59588051    -0.78800
C244        C  0.23920310  0.17372790  0.61511956     0.84700
O245        O  0.26326302  0.19695610  0.60296810    -0.66000
Ni246      Ni  0.30476932  0.29246049  0.48588097     1.27400
Ni247      Ni  0.23697206  0.23880702  0.46188938     1.26100
H248        H  0.25381740  0.17961573  0.50146726     0.39200
C249        C  0.13699310  0.32733974  0.57996261     0.80400
N250        N  0.16538177  0.32738478  0.60864497    -0.77900
C251        C  0.17898258  0.36179710  0.29089605     0.82800
N252        N  0.16538058  0.39620968  0.60864610    -0.77900
C253        C  0.13699269  0.39625595  0.57996286     0.82900
N254        N  0.12279825  0.36179822  0.56639402    -0.79600
C255        C  0.25362014  0.32783398  0.36298493     0.80400
N256        N  0.27124938  0.36179561  0.36693412    -0.77900
C257        C  0.25361881  0.39575752  0.36298817     0.82800
N258        N  0.22296474  0.39607712  0.33866315    -0.77900
C259        C  0.20933419  0.36179704  0.32277193     0.82900
N260        N  0.22296614  0.32751626  0.33866040    -0.79600
N261        N  0.12453167  0.43159536  0.55865981    -0.03300
C262        C  0.08971056  0.43872894  0.55440821    -0.00700
C263        C  0.08243057  0.45592314  0.51183515    -0.23600
C264        C  0.11376898  0.45976190  0.48908259    -0.23800
C265        C  0.13936972  0.44575794  0.51893232    -0.00800
H266        H  0.05786864  0.96877448  0.50099551     0.12900
H267        H  0.11795737  0.97678775  0.45766334     0.13000
N268        N  0.37451359  0.04199685  0.45750101    -0.03300
C269        C  0.40933514  0.03486355  0.46175198    -0.00700
C270        C  0.41661526  0.51766908  0.50432518    -0.23600
C271        C  0.38527672  0.51383006  0.52707783    -0.23800
C272        C  0.35967576  0.02783393  0.49722858    -0.00800
H273        H  0.44117712  0.50481766  0.51516492     0.12900
H274        H  0.38108812  0.49680362  0.55849658     0.13000
O275        O  0.28845069  0.42023909  0.42351335    -0.80700
O276        O  0.26326224  0.02663369  0.60297120    -0.65400
O277        O  0.26013938  0.45102057  0.50545457    -1.12000
C278        C  0.18362777  0.03233852  0.42777197     1.06100
O279        O  0.21059528  0.05335182  0.59264695    -0.78600
O280        O  0.17928561  0.49151005  0.54835742    -0.66200
Ni281      Ni  0.30476862  0.43112840  0.48588488     1.34900
C282        C  0.17347492  0.46551611  0.51772599     0.84900
O283        O  0.28473085  0.45377586  0.59588336    -0.79200
O284        O  0.32701469  0.43593543  0.54703187    -0.89500
C285        C  0.23920306  0.04986444  0.61512099     0.84500
O286        O  0.31976074  0.48208030  0.46780478    -0.67700
O287        O  0.17203037  0.03765448  0.46912940    -0.86900
C288        C  0.32557078  0.00807494  0.49843567     0.85300
C289        C  0.31541736  0.44125145  0.58838921     1.06900
H290        H  0.25381625  0.04397530  0.50146804     0.38700
O291        O  0.23890509  0.02256879  0.51070690    -1.09600
O292        O  0.19211986  0.46252537  0.48078185    -0.66300
Ni293      Ni  0.23697156  0.48478459  0.46189196     1.26300
O294        O  0.30692607  0.01106492  0.53538024    -0.66500
O295        O  0.21431385  0.51981294  0.42027759    -0.78800
C296        C  0.25984221  0.42372567  0.40104057     0.84700
O297        O  0.23578257  0.44695516  0.41319198    -0.66000
Ni298      Ni  0.19427651  0.04246177  0.53027634     1.27400
Ni299      Ni  0.26207340  0.98880466  0.55426981     1.26100
H300        H  0.24522588  0.42961132  0.51469425     0.39200
C301        C  0.24542635  0.07783425  0.65317161     0.78800
N302        N  0.27608004  0.07751530  0.67749718    -0.77900
C303        C  0.28971054  0.11179544  0.69338754     0.82800
N304        N  0.27607926  0.14607618  0.67749723    -0.77900
C305        C  0.24542605  0.14575793  0.65317075     0.82900
N306        N  0.22779648  0.11179641  0.64922237    -0.79600
C307        C  0.36205132  0.07733612  0.43619847     0.80400
N308        N  0.37624650  0.11179413  0.44976531    -0.77900
C309        C  0.36205253  0.14625255  0.43619454     0.82800
N310        N  0.33366407  0.14620706  0.40751203    -0.77900
C311        C  0.32006182  0.11179475  0.39193057     0.82900
N312        N  0.33366266  0.07738208  0.40751623    -0.79600
N313        N  0.12451692  0.18159263  0.39199073    -0.03300
C314        C  0.15933800  0.18872719  0.38773988    -0.00700
C315        C  0.16661739  0.20592254  0.34516714    -0.23600
C316        C  0.13527911  0.20975994  0.32241406    -0.23800
C317        C  0.10967860  0.19575525  0.35226334    -0.00800
H318        H  0.19117830  0.21877574  0.33432808     0.12900
H319        H  0.13109002  0.22678569  0.29099486     0.13000
N320        N  0.37453050  0.29199904  0.62416608    -0.03300
C321        C  0.33970953  0.28486381  0.62841660    -0.00700
C322        C  0.33242985  0.26766852  0.67098931    -0.23600
C323        C  0.36376800  0.26383043  0.69374237    -0.23800
C324        C  0.38936852  0.27783624  0.66389364    -0.00800
H325        H  0.30786878  0.25481547  0.68182802     0.12900
H326        H  0.36795688  0.24680327  0.72516056     0.13000
O327        O  0.03844891  0.30334744  0.42598179    -0.80700
O328        O  0.01326508  0.19695791  0.57985569    -0.65400
O329        O  0.01014002  0.27257079  0.34403943    -1.12000
C330        C  0.43362657  0.19125330  0.42171794     1.06100
O331        O  0.46059688  0.17024403  0.59017695    -0.78600
O332        O  0.42928712  0.23208573  0.63446744    -0.66200
Ni333      Ni  0.05476865  0.29246027  0.36361061     1.34900
C334        C  0.42347485  0.25807879  0.66509975     0.84900
O335        O  0.03473421  0.26981523  0.58694421    -0.79200
O336        O  0.07701619  0.28765526  0.63579687    -0.89500
C337        C  0.98920557  0.17372946  0.56770445     0.84500
O338        O  0.06976076  0.24150746  0.38168923    -0.67700
O339        O  0.42203015  0.18593967  0.38036032    -0.86900
C340        C  0.07557253  0.21551393  0.35105726     0.85300
C341        C  0.06541952  0.28234109  0.59443919     1.06900
H342        H  0.50381663  0.17961706  0.34802335     0.38700
O343        O  0.48890581  0.20102397  0.33878495    -1.09600
O344        O  0.44211887  0.26106815  0.70204434    -0.66300
Ni345      Ni  0.48697065  0.23880705  0.38760090     1.26300
O346        O  0.05692815  0.21252480  0.31411295    -0.66500
O347        O  0.46431217  0.20377833  0.42921359    -0.78800
C348        C  0.50983952  0.29986358  0.44845325     0.84700
O349        O  0.48577976  0.27663568  0.43630184    -0.66000
Ni350      Ni  0.44427764  0.18113319  0.65254742     1.27400
Ni351      Ni  0.01207552  0.23478718  0.62855683     1.26100
H352        H  0.99522719  0.29398036  0.66813327     0.39200
C353        C  0.99542933  0.07783635  0.52965477     0.80400
N354        N  0.47779959  0.11179855  0.53360302    -0.77900
C355        C  0.99542943  0.14575989  0.52965394     0.82800
N356        N  0.02608391  0.14607749  0.50532962    -0.77900
C357        C  0.03971486  0.11179695  0.48943924     0.82900
N358        N  0.02608327  0.07751677  0.50532899    -0.79600
C359        C  0.11205589  0.14625360  0.41329393     0.80400
N360        N  0.12624918  0.11179490  0.39972292    -0.77900
C361        C  0.11205440  0.07733720  0.41329303     0.82800
N362        N  0.08366777  0.07738388  0.44197928    -0.77900
C363        C  0.07006659  0.11179663  0.45756303     0.82900
N364        N  0.08366779  0.14620874  0.44197793    -0.79600
N365        N  0.12451521  0.04199711  0.39199133    -0.03300
C366        C  0.15933636  0.03486215  0.38774072    -0.00700
C367        C  0.16661668  0.51766651  0.34516863    -0.23600
C368        C  0.13527849  0.51382806  0.32241601    -0.23800
C369        C  0.10967738  0.02783376  0.35226455    -0.00800
H370        H  0.19117851  0.50481424  0.33432972     0.12900
H371        H  0.13109023  0.49680145  0.29099786     0.13000
N372        N  0.37453075  0.43159466  0.62416949    -0.03300
C373        C  0.33970934  0.43872880  0.62842028    -0.00700
C374        C  0.33242932  0.45592546  0.67099177    -0.23600
C375        C  0.36376762  0.45976469  0.69374387    -0.23800
C376        C  0.38936866  0.44575875  0.66389580    -0.00800
H377        H  0.30786763  0.96877809  0.68183042     0.12900
H378        H  0.36795602  0.97679212  0.72516134     0.13000
O379        O  0.46059618  0.05335206  0.59017754    -0.80700
O380        O  0.48578226  0.44695754  0.43630339    -0.65400
O381        O  0.48890560  0.02257096  0.33878596    -1.12000
C382        C  0.06541903  0.44125430  0.59443911     1.06100
O383        O  0.03845003  0.42024079  0.42598086    -0.78600
O384        O  0.06975977  0.48208279  0.38169085    -0.66200
Ni385      Ni  0.44427693  0.04246302  0.65254909     1.34900
C386        C  0.07557130  0.00807664  0.35105889     0.84900
O387        O  0.46431354  0.51981539  0.42921466    -0.79200
O388        O  0.42203029  0.03765638  0.38036318    -0.89500
C389        C  0.50984150  0.42372721  0.44845396     0.84500
O390        O  0.42928524  0.49151108  0.63447005    -0.67700
O391        O  0.07701598  0.43593886  0.63579658    -0.86900
C392        C  0.42347431  0.46551669  0.66510173     0.85300
C393        C  0.43362736  0.03234044  0.42172057     1.06900
H394        H  0.99523049  0.42961794  0.66813552     0.38700
O395        O  0.01014064  0.45102359  0.34403989    -1.09600
O396        O  0.05692660  0.01106749  0.31411479    -0.66300
Ni397      Ni  0.01207507  0.98880802  0.62855771     1.26300
O398        O  0.44211852  0.46252668  0.70204634    -0.66500
O399        O  0.03473325  0.45377993  0.58694417    -0.78800
C400        C  0.98920558  0.04986706  0.56770593     0.84700
O401        O  0.01326549  0.02663816  0.57985772    -0.66000
Ni402      Ni  0.05476920  0.43113126  0.36361012     1.27400
Ni403      Ni  0.48697127  0.48478696  0.38760175     1.26100
H404        H  0.50381840  0.04397991  0.34802554     0.39200
C405        C  0.38699271  0.39625531  0.60286755     0.80400
N406        N  0.41538081  0.39620955  0.57418377    -0.77900
C407        C  0.42898061  0.36179703  0.55859681     0.82800
N408        N  0.41537803  0.32738463  0.57417829    -0.77900
C409        C  0.38699092  0.32733886  0.60286369     0.82900
N410        N  0.37279740  0.36179718  0.61643544    -0.79600
C411        C  0.50361726  0.39575689  0.48650443     0.80400
N412        N  0.02124643  0.36179434  0.48255524    -0.77900
C413        C  0.50361615  0.32783320  0.48650390     0.82800
N414        N  0.47296256  0.32751531  0.51083019    -0.77900
C415        C  0.45933144  0.36179619  0.52671955     0.82900
N416        N  0.47296316  0.39607624  0.51082975    -0.79600
N417        N  0.12453235  0.29200119  0.89199230    -0.03300
C418        C  0.08971114  0.28486811  0.88774112    -0.00700
C419        C  0.08243145  0.26767642  0.84516689    -0.23600
C420        C  0.11376986  0.26383889  0.82241350    -0.23800
C421        C  0.13937044  0.27784056  0.85226365    -0.00800
H422        H  0.05787004  0.25482573  0.83432667     0.12900
H423        H  0.11795876  0.24681518  0.79099285     0.13000
N424        N  0.37451321  0.18159176  0.79083033    -0.03300
C425        C  0.40933438  0.18872564  0.79508171    -0.00700
C426        C  0.41661376  0.20591784  0.83765541    -0.23600
C427        C  0.38527558  0.20975469  0.86040896    -0.23800
C428        C  0.35967512  0.19575247  0.83055899    -0.00800
H429        H  0.44117459  0.21877080  0.84849423     0.12900
H430        H  0.38108665  0.22678065  0.89182775     0.13000
O431        O  0.21059451  0.17024365  0.92598075    -0.80700
O432        O  0.23578370  0.27663538  0.74652024    -0.65400
O433        O  0.23890552  0.20102372  0.84403911    -1.12000
C434        C  0.31541829  0.28233809  0.92171874     1.06100
O435        O  0.28845073  0.30335098  0.75684379    -0.78600
O436        O  0.31976003  0.24150790  0.80113444    -0.66200
Ni437      Ni  0.19427698  0.18113258  0.86360919     1.34900
C438        C  0.32557045  0.21551335  0.83176611     0.84900
O439        O  0.21431486  0.20377838  0.75361005    -0.79200
O440        O  0.17203124  0.18593912  0.80246210    -0.89500
C441        C  0.25984310  0.29986460  0.73436978     0.84500
O442        O  0.17928510  0.23208492  0.88168770    -0.67700
O443        O  0.32701565  0.28765246  0.88036108    -0.86900
C444        C  0.17347522  0.25807985  0.85105627     0.85300
C445        C  0.18362903  0.19125326  0.76110467     1.06900
H446        H  0.24522765  0.29397959  0.84802310     0.38700
O447        O  0.26014012  0.27257066  0.83878452    -1.09600
O448        O  0.30692579  0.21252391  0.86871066    -0.66300
Ni449      Ni  0.26207404  0.23478622  0.88760064     1.26300
O450        O  0.19211961  0.26106882  0.81411130    -0.66500
O451        O  0.28473256  0.26981292  0.92921386    -0.78800
C452        C  0.23920311  0.17372790  0.94845293     0.84700
O453        O  0.26326302  0.19695610  0.93630142    -0.66000
Ni454      Ni  0.30476929  0.29246044  0.81921434     1.27400
Ni455      Ni  0.23697204  0.23880702  0.79522270     1.26100
H456        H  0.25381753  0.17961553  0.83480045     0.39200
C457        C  0.13699311  0.32733973  0.91329593     0.80400
N458        N  0.16538163  0.32738475  0.94197854    -0.77900
C459        C  0.17898262  0.36179708  0.62422933     0.82800
N460        N  0.16538062  0.39620965  0.94197942    -0.77900
C461        C  0.13699269  0.39625597  0.91329626     0.82900
N462        N  0.12279829  0.36179824  0.89972727    -0.79600
C463        C  0.25362020  0.32783397  0.69631816     0.80400
N464        N  0.27124941  0.36179563  0.70026735    -0.77900
C465        C  0.25361878  0.39575752  0.69632149     0.82800
N466        N  0.22296468  0.39607707  0.67199654    -0.77900
C467        C  0.20933422  0.36179700  0.65610520     0.82900
N468        N  0.22296621  0.32751622  0.67199362    -0.79600
N469        N  0.12453171  0.43159543  0.89199327    -0.03300
C470        C  0.08971057  0.43872896  0.88774158    -0.00700
C471        C  0.08243052  0.45592302  0.84516842    -0.23600
C472        C  0.11376898  0.45976183  0.82241596    -0.23800
C473        C  0.13936974  0.44575796  0.85226575    -0.00800
H474        H  0.05786871  0.96877448  0.83432885     0.12900
H475        H  0.11795742  0.97678752  0.79099659     0.13000
N476        N  0.37451359  0.04199680  0.79083431    -0.03300
C477        C  0.40933512  0.03486349  0.79508532    -0.00700
C478        C  0.41661526  0.51766917  0.83765855    -0.23600
C479        C  0.38527673  0.51383019  0.86041116    -0.23800
C480        C  0.35967576  0.02783395  0.83056194    -0.00800
H481        H  0.44117710  0.50481772  0.84849838     0.12900
H482        H  0.38108813  0.49680374  0.89182994     0.13000
O483        O  0.28845065  0.42023914  0.75684666    -0.80700
O484        O  0.26326223  0.02663370  0.93630455    -0.65400
O485        O  0.26013941  0.45102067  0.83878792    -1.12000
C486        C  0.18362778  0.03233857  0.76110527     1.06100
O487        O  0.21059528  0.05335184  0.92598027    -0.78600
O488        O  0.17928565  0.49151010  0.88169065    -0.66200
Ni489      Ni  0.30476862  0.43112844  0.81921821     1.34900
C490        C  0.17347492  0.46551610  0.85105929     0.84900
O491        O  0.28473088  0.45377591  0.92921673    -0.79200
O492        O  0.32701470  0.43593545  0.88036522    -0.89500
C493        C  0.23920305  0.04986442  0.94845435     0.84500
O494        O  0.31976077  0.48208034  0.80113818    -0.67700
O495        O  0.17203034  0.03765450  0.80246268    -0.86900
C496        C  0.32557078  0.00807496  0.83176908     0.85300
C497        C  0.31541737  0.44125149  0.92172256     1.06900
H498        H  0.25381634  0.04397551  0.83480128     0.38700
O499        O  0.23890508  0.02256890  0.84404020    -1.09600
O500        O  0.19211984  0.46252527  0.81411515    -0.66300
Ni501      Ni  0.23697152  0.48478462  0.79522527     1.26300
O502        O  0.30692603  0.01106497  0.86871362    -0.66500
O503        O  0.21431381  0.51981294  0.75361088    -0.78800
C504        C  0.25984216  0.42372569  0.73437389     0.84700
O505        O  0.23578250  0.44695514  0.74652531    -0.66000
Ni506      Ni  0.19427646  0.04246183  0.86360964     1.27400
Ni507      Ni  0.26207335  0.98880472  0.88760315     1.26100
H508        H  0.24522600  0.42961153  0.84802768     0.39200
C509        C  0.24542640  0.07783426  0.98650495     0.78800
N510        N  0.27608009  0.07751532  0.01083053    -0.77900
C511        C  0.28971062  0.11179549  0.02672079     0.82800
N512        N  0.27607930  0.14607621  0.01083057    -0.77900
C513        C  0.24542607  0.14575797  0.98650416     0.82900
N514        N  0.22779656  0.11179642  0.98255568    -0.79600
C515        C  0.36205135  0.07733608  0.76953172     0.80400
N516        N  0.37624655  0.11179410  0.78309855    -0.77900
C517        C  0.36205252  0.14625253  0.76952786     0.82800
N518        N  0.33366402  0.14620704  0.74084543    -0.77900
C519        C  0.32006184  0.11179473  0.72526384     0.82900
N520        N  0.33366271  0.07738205  0.74084946    -0.79600
N521        N  0.12451692  0.18159263  0.72532402    -0.03300
C522        C  0.15933801  0.18872710  0.72107319    -0.00700
C523        C  0.16661744  0.20592238  0.67850041    -0.23600
C524        C  0.13527912  0.20975991  0.65574737    -0.23800
C525        C  0.10967860  0.19575524  0.68559664    -0.00800
H526        H  0.19117836  0.21877553  0.66766139     0.12900
H527        H  0.13109002  0.22678574  0.62432821     0.13000
N528        N  0.37453051  0.29199902  0.95749937    -0.03300
C529        C  0.33970953  0.28486388  0.96174996    -0.00700
C530        C  0.33242988  0.26766868  0.00432273    -0.23600
C531        C  0.36376803  0.26383058  0.02707571    -0.23800
C532        C  0.38936855  0.27783623  0.99722692    -0.00800
H533        H  0.30786884  0.25481561  0.01516148     0.12900
H534        H  0.36795693  0.24680343  0.05849393     0.13000
O535        O  0.03844890  0.30334738  0.75931510    -0.80700
O536        O  0.01326504  0.19695796  0.91318895    -0.65400
O537        O  0.01014001  0.27257075  0.67737270    -1.12000
C538        C  0.43362656  0.19125329  0.75505125     1.06100
O539        O  0.46059686  0.17024405  0.92351027    -0.78600
O540        O  0.42928713  0.23208571  0.96780076    -0.66200
Ni541      Ni  0.05476860  0.29246021  0.69694392     1.34900
C542        C  0.42347485  0.25807873  0.99843308     0.84900
O543        O  0.03473417  0.26981528  0.92027752    -0.79200
O544        O  0.07701614  0.28765530  0.96913021    -0.89500
C545        C  0.98920554  0.17372947  0.90103775     0.84500
O546        O  0.06976075  0.24150741  0.71502253    -0.67700
O547        O  0.42203016  0.18593955  0.71369365    -0.86900
C548        C  0.07557250  0.21551388  0.68439055     0.85300
C549        C  0.06541949  0.28234109  0.92777257     1.06900
H550        H  0.50381663  0.17961716  0.68135656     0.38700
O551        O  0.48890581  0.20102401  0.67211821    -1.09600
O552        O  0.44211883  0.26106807  0.03537772    -0.66300
Ni553      Ni  0.48697065  0.23880706  0.72093415     1.26300
O554        O  0.05692815  0.21252480  0.64744623    -0.66500
O555        O  0.46431216  0.20377836  0.76254685    -0.78800
C556        C  0.50983952  0.29986356  0.78178653     0.84700
O557        O  0.48577980  0.27663564  0.76963514    -0.66000
Ni558      Ni  0.44427761  0.18113321  0.98588075     1.27400
Ni559      Ni  0.01207549  0.23478722  0.96189011     1.26100
H560        H  0.99522707  0.29398043  0.00146675     0.39200
C561        C  0.99542940  0.07783636  0.86298819     0.80400
N562        N  0.47779963  0.11179855  0.86693649    -0.77900
C563        C  0.99542940  0.14575989  0.86298730     0.82800
N564        N  0.02608390  0.14607751  0.83866300    -0.77900
C565        C  0.03971486  0.11179699  0.82277258     0.82900
N566        N  0.02608334  0.07751681  0.83866244    -0.79600
C567        C  0.11205587  0.14625362  0.74662717     0.80400
N568        N  0.12624918  0.11179494  0.73305616    -0.77900
C569        C  0.11205440  0.07733725  0.74662629     0.82800
N570        N  0.08366777  0.07738394  0.77531253    -0.77900
C571        C  0.07006658  0.11179668  0.79089629     0.82900
N572        N  0.08366778  0.14620878  0.77531118    -0.79600
N573        N  0.12451523  0.04199715  0.72532464    -0.03300
C574        C  0.15933638  0.03486221  0.72107403    -0.00700
C575        C  0.16661668  0.51766648  0.67850199    -0.23600
C576        C  0.13527852  0.51382811  0.65574933    -0.23800
C577        C  0.10967741  0.02783378  0.68559788    -0.00800
H578        H  0.19117853  0.50481427  0.66766309     0.12900
H579        H  0.13109027  0.49680158  0.62433112     0.13000
N580        N  0.37453075  0.43159468  0.95750286    -0.03300
C581        C  0.33970935  0.43872884  0.96175361    -0.00700
C582        C  0.33242934  0.45592553  0.00432506    -0.23600
C583        C  0.36376760  0.45976465  0.02707722    -0.23800
C584        C  0.38936866  0.44575877  0.99722915    -0.00800
H585        H  0.30786766  0.96877827  0.01516368     0.12900
H586        H  0.36795598  0.97679198  0.05849476     0.13000
O587        O  0.46059619  0.05335204  0.92351081    -0.80700
O588        O  0.48578224  0.44695742  0.76963660    -0.65400
O589        O  0.48890567  0.02257100  0.67211928    -1.12000
C590        C  0.06541905  0.44125436  0.92777248     1.06100
O591        O  0.03845008  0.42024079  0.75931424    -0.78600
O592        O  0.06975976  0.48208287  0.71502423    -0.66200
Ni593      Ni  0.44427697  0.04246308  0.98588235     1.34900
C594        C  0.07557132  0.00807667  0.68439223     0.84900
O595        O  0.46431355  0.51981537  0.76254801    -0.79200
O596        O  0.42203026  0.03765620  0.71369653    -0.89500
C597        C  0.50984151  0.42372715  0.78178723     0.84500
O598        O  0.42928524  0.49151110  0.96780332    -0.67700
O599        O  0.07701597  0.43593894  0.96912994    -0.86900
C600        C  0.42347429  0.46551676  0.99843504     0.85300
C601        C  0.43362734  0.03234031  0.75505392     1.06900
H602        H  0.99523036  0.42961782  0.00146873     0.38700
O603        O  0.01014069  0.45102364  0.67737325    -1.09600
O604        O  0.05692663  0.01106747  0.64744809    -0.66300
Ni605      Ni  0.01207509  0.98880804  0.96189108     1.26300
O606        O  0.44211848  0.46252681  0.03537969    -0.66500
O607        O  0.03473328  0.45378000  0.92027752    -0.78800
C608        C  0.98920561  0.04986705  0.90103926     0.84700
O609        O  0.01326553  0.02663818  0.91319110    -0.66000
Ni610      Ni  0.05476922  0.43113131  0.69694351     1.27400
Ni611      Ni  0.48697129  0.48478695  0.72093506     1.26100
H612        H  0.50381855  0.04398002  0.68135885     0.39200
C613        C  0.38699270  0.39625531  0.93620098     0.80400
N614        N  0.41538068  0.39620958  0.90751695    -0.77900
C615        C  0.42898056  0.36179707  0.89193010     0.82800
N616        N  0.41537806  0.32738467  0.90751170    -0.77900
C617        C  0.38699090  0.32733886  0.93619701     0.82900
N618        N  0.37279743  0.36179717  0.94976892    -0.79600
C619        C  0.50361730  0.39575690  0.81983777     0.80400
N620        N  0.02124641  0.36179433  0.81588853    -0.77900
C621        C  0.50361612  0.32783322  0.81983714     0.82800
N622        N  0.47296254  0.32751535  0.84416344    -0.77900
C623        C  0.45933142  0.36179623  0.86005281     0.82900
N624        N  0.47296318  0.39607627  0.84416304    -0.79600
N625        N  0.12453234  0.79200120  0.22532556    -0.03300
C626        C  0.08971113  0.78486811  0.22107438    -0.00700
C627        C  0.08243145  0.76767639  0.17850013    -0.23600
C628        C  0.11376987  0.76383884  0.15574676    -0.23800
C629        C  0.13937044  0.77784058  0.18559693    -0.00800
H630        H  0.05787003  0.75482569  0.16765990     0.12900
H631        H  0.11795880  0.74681514  0.12432611     0.13000
N632        N  0.37451321  0.68159173  0.12416373    -0.03300
C633        C  0.40933439  0.68872559  0.12841511    -0.00700
C634        C  0.41661377  0.70591781  0.17098877    -0.23600
C635        C  0.38527559  0.70975460  0.19374230    -0.23800
C636        C  0.35967510  0.69575244  0.16389236    -0.00800
H637        H  0.44117458  0.71877083  0.18182758     0.12900
H638        H  0.38108667  0.72678058  0.22516112     0.13000
O639        O  0.21059442  0.67024388  0.25931420    -0.80700
O640        O  0.23578369  0.77663540  0.07985368    -0.65400
O641        O  0.23890545  0.70102387  0.17737259    -1.12000
C642        C  0.31541829  0.78233808  0.25505204     1.06100
O643        O  0.28845075  0.80335096  0.09017705    -0.78600
O644        O  0.31976005  0.74150795  0.13446784    -0.66200
Ni645      Ni  0.19427695  0.68113273  0.19694259     1.34900
C646        C  0.32557043  0.71551336  0.16509949     0.84900
O647        O  0.21431493  0.70377841  0.08694339    -0.79200
O648        O  0.17203132  0.68593914  0.13579540    -0.89500
C649        C  0.25984309  0.79986458  0.06770312     0.84500
O650        O  0.17928510  0.73208508  0.21502109    -0.67700
O651        O  0.32701563  0.78765252  0.21369439    -0.86900
C652        C  0.17347524  0.75807999  0.18438965     0.85300
C653        C  0.18362911  0.69125328  0.09443797     1.06900
H654        H  0.24522774  0.79397956  0.18135641     0.38700
O655        O  0.26014017  0.77257066  0.17211790    -1.09600
O656        O  0.30692575  0.71252385  0.20204401    -0.66300
Ni657      Ni  0.26207405  0.73478625  0.22093406     1.26300
O658        O  0.19211965  0.76106890  0.14744468    -0.66500
O659        O  0.28473258  0.76981290  0.26254722    -0.78800
C660        C  0.23920310  0.67372792  0.28178627     0.84700
O661        O  0.26326305  0.69695606  0.26963475    -0.66000
Ni662      Ni  0.30476930  0.79246050  0.15254764     1.27400
Ni663      Ni  0.23697206  0.73880706  0.12855612     1.26100
H664        H  0.25381735  0.67961579  0.16813406     0.39200
C665        C  0.13699313  0.82733971  0.24662924     0.80400
N666        N  0.16538174  0.82738476  0.27531169    -0.77900
C667        C  0.17898258  0.86179703  0.95756277     0.82800
N668        N  0.16538063  0.89620965  0.27531269    -0.77900
C669        C  0.13699267  0.89625594  0.24662958     0.82900
N670        N  0.12279822  0.86179820  0.23306073    -0.79600
C671        C  0.25362017  0.82783395  0.02965151     0.80400
N672        N  0.27124941  0.86179560  0.03360065    -0.77900
C673        C  0.25361878  0.89575749  0.02965487     0.82800
N674        N  0.22296471  0.89607707  0.00532986    -0.77900
C675        C  0.20933423  0.86179699  0.98943853     0.82900
N676        N  0.22296614  0.82751622  0.00532706    -0.79600
N677        N  0.12453166  0.93159537  0.22532654    -0.03300
C678        C  0.08971055  0.93872896  0.22107492    -0.00700
C679        C  0.08243056  0.95592316  0.17850187    -0.23600
C680        C  0.11376897  0.95976193  0.15574927    -0.23800
C681        C  0.13936972  0.94575795  0.18559904    -0.00800
H682        H  0.05786866  0.46877464  0.16766240     0.12900
H683        H  0.11795735  0.47678765  0.12432998     0.13000
N684        N  0.37451357  0.54199678  0.12416761    -0.03300
C685        C  0.40933512  0.53486352  0.12841864    -0.00700
C686        C  0.41661520  0.01766903  0.17099183    -0.23600
C687        C  0.38527667  0.01383004  0.19374440    -0.23800
C688        C  0.35967576  0.52783393  0.16389522    -0.00800
H689        H  0.44117701  0.00481757  0.18183171     0.12900
H690        H  0.38108803  0.99680358  0.22516318     0.13000
O691        O  0.28845067  0.92023907  0.09018010    -0.80700
O692        O  0.26326223  0.52663364  0.26963791    -0.65400
O693        O  0.26013941  0.95102062  0.17212124    -1.12000
C694        C  0.18362785  0.53233851  0.09443860     1.06100
O695        O  0.21059530  0.55335181  0.25931361    -0.78600
O696        O  0.17928563  0.99151009  0.21502408    -0.66200
Ni697      Ni  0.30476862  0.93112838  0.15255162     1.34900
C698        C  0.17347492  0.96551613  0.18439268     0.84900
O699        O  0.28473084  0.95377586  0.26255004    -0.79200
O700        O  0.32701470  0.93593544  0.21369857    -0.89500
C701        C  0.23920308  0.54986441  0.28178767     0.84500
O702        O  0.31976071  0.98208027  0.13447150    -0.67700
O703        O  0.17203044  0.53765450  0.13579603    -0.86900
C704        C  0.32557081  0.50807492  0.16510240     0.85300
C705        C  0.31541735  0.94125145  0.25505590     1.06900
H706        H  0.25381636  0.54397530  0.16813458     0.38700
O707        O  0.23890516  0.52256878  0.17737352    -1.09600
O708        O  0.19211986  0.96252537  0.14744853    -0.66300
Ni709      Ni  0.23697158  0.98478460  0.12855860     1.26300
O710        O  0.30692608  0.51106489  0.20204695    -0.66500
O711        O  0.21431388  0.01981297  0.08694424    -0.78800
C712        C  0.25984219  0.92372563  0.06770731     0.84700
O713        O  0.23578256  0.94695514  0.07985866    -0.66000
Ni714      Ni  0.19427656  0.54246177  0.19694298     1.27400
Ni715      Ni  0.26207338  0.48880462  0.22093649     1.26100
H716        H  0.24522596  0.92961149  0.18136090     0.39200
C717        C  0.24542642  0.57783427  0.31983822     0.78800
N718        N  0.27608009  0.57751532  0.34416382    -0.77900
C719        C  0.28971053  0.61179545  0.36005429     0.82800
N720        N  0.27607924  0.64607620  0.34416402    -0.77900
C721        C  0.24542606  0.64575795  0.31983746     0.82900
N722        N  0.22779655  0.61179642  0.31588893    -0.79600
C723        C  0.36205131  0.57733608  0.10286508     0.80400
N724        N  0.37624654  0.61179408  0.11643190    -0.77900
C725        C  0.36205251  0.64625252  0.10286126     0.82800
N726        N  0.33366403  0.64620707  0.07417880    -0.77900
C727        C  0.32006181  0.61179478  0.05859724     0.82900
N728        N  0.33366269  0.57738208  0.07418279    -0.79600
N729        N  0.12451696  0.68159265  0.05865738    -0.03300
C730        C  0.15933805  0.68872722  0.05440653    -0.00700
C731        C  0.16661740  0.70592260  0.01183381    -0.23600
C732        C  0.13527910  0.70975996  0.98908083    -0.23800
C733        C  0.10967860  0.69575526  0.01893004    -0.00800
H734        H  0.19117829  0.71877581  0.00099469     0.12900
H735        H  0.13108992  0.72678573  0.95766161     0.13000
N736        N  0.37453050  0.79199905  0.29083272    -0.03300
C737        C  0.33970953  0.78486383  0.29508325    -0.00700
C738        C  0.33242984  0.76766851  0.33765594    -0.23600
C739        C  0.36376798  0.76383046  0.36040901    -0.23800
C740        C  0.38936852  0.77783625  0.33056030    -0.00800
H741        H  0.30786878  0.75481543  0.34849462     0.12900
H742        H  0.36795685  0.74680332  0.39182722     0.13000
O743        O  0.03844894  0.80334740  0.09264839    -0.80700
O744        O  0.01326508  0.69695792  0.24652246    -0.65400
O745        O  0.01014000  0.77257081  0.01070603    -1.12000
C746        C  0.43362658  0.69125330  0.08838465     1.06100
O747        O  0.46059689  0.67024404  0.25684362    -0.78600
O748        O  0.42928715  0.73208578  0.30113406    -0.66200
Ni749      Ni  0.05476862  0.79246030  0.03027722     1.34900
C750        C  0.42347485  0.75807880  0.33176641     0.84900
O751        O  0.03473419  0.76981523  0.25361089    -0.79200
O752        O  0.07701616  0.78765525  0.30246356    -0.89500
C753        C  0.98920558  0.67372946  0.23437119     0.84500
O754        O  0.06976075  0.74150749  0.04835576    -0.67700
O755        O  0.42203017  0.68593968  0.04702703    -0.86900
C756        C  0.07557250  0.71551390  0.01772383     0.85300
C757        C  0.06541951  0.78234106  0.26110589     1.06900
H758        H  0.50381661  0.67961716  0.01468974     0.38700
O759        O  0.48890580  0.70102404  0.00545148    -1.09600
O760        O  0.44211885  0.76106812  0.36871103    -0.66300
Ni761      Ni  0.48697065  0.73880708  0.05426747     1.26300
O762        O  0.05692812  0.71252478  0.98077950    -0.66500
O763        O  0.46431219  0.70377835  0.09588026    -0.78800
C764        C  0.50983951  0.79986359  0.11511977     0.84700
O765        O  0.48577977  0.77663571  0.10296833    -0.66000
Ni766      Ni  0.44427764  0.68113322  0.31921406     1.27400
Ni767      Ni  0.01207552  0.73478719  0.29522356     1.26100
H768        H  0.99522719  0.79398037  0.33480004     0.39200
C769        C  0.99542935  0.57783636  0.19632149     0.80400
N770        N  0.47779964  0.61179856  0.20026979    -0.77900
C771        C  0.99542946  0.64575989  0.19632071     0.82800
N772        N  0.02608394  0.64607750  0.17199637    -0.77900
C773        C  0.03971488  0.61179696  0.15610594     0.82900
N774        N  0.02608330  0.57751679  0.17199573    -0.79600
C775        C  0.11205596  0.64625361  0.07996059     0.80400
N776        N  0.12624928  0.61179493  0.06638959    -0.77900
C777        C  0.11205443  0.57733722  0.07995957     0.82800
N778        N  0.08366774  0.57738389  0.10864575    -0.77900
C779        C  0.07006656  0.61179664  0.12422953     0.82900
N780        N  0.08366778  0.64620874  0.10864443    -0.79600
N781        N  0.12451529  0.54199713  0.05865794    -0.03300
C782        C  0.15933644  0.53486217  0.05440734    -0.00700
C783        C  0.16661670  0.01766641  0.01183529    -0.23600
C784        C  0.13527852  0.01382811  0.98908265    -0.23800
C785        C  0.10967746  0.52783376  0.01893121    -0.00800
H786        H  0.19117847  0.00481401  0.00099640     0.12900
H787        H  0.13109021  0.99680148  0.95766450     0.13000
N788        N  0.37453075  0.93159469  0.29083612    -0.03300
C789        C  0.33970933  0.93872879  0.29508692    -0.00700
C790        C  0.33242931  0.95592547  0.33765838    -0.23600
C791        C  0.36376759  0.95976465  0.36041043    -0.23800
C792        C  0.38936865  0.94575877  0.33056240    -0.00800
H793        H  0.30786769  0.46877831  0.34849699     0.12900
H794        H  0.36795605  0.47679198  0.39182798     0.13000
O795        O  0.46059617  0.55335205  0.25684417    -0.80700
O796        O  0.48578222  0.94695741  0.10296988    -0.65400
O797        O  0.48890564  0.52257103  0.00545263    -1.12000
C798        C  0.06541902  0.94125431  0.26110580     1.06100
O799        O  0.03845003  0.92024077  0.09264753    -0.78600
O800        O  0.06975982  0.98208280  0.04835760    -0.66200
Ni801      Ni  0.44427691  0.54246300  0.31921570     1.34900
C802        C  0.07557137  0.50807665  0.01772560     0.84900
O803        O  0.46431356  0.01981530  0.09588138    -0.79200
O804        O  0.42203029  0.53765627  0.04702984    -0.89500
C805        C  0.50984151  0.92372718  0.11512056     0.84500
O806        O  0.42928526  0.99151103  0.30113665    -0.67700
O807        O  0.07701598  0.93593887  0.30246323    -0.86900
C808        C  0.42347430  0.96551670  0.33176837     0.85300
C809        C  0.43362736  0.53234042  0.08838724     1.06900
H810        H  0.99523044  0.92961790  0.33480203     0.38700
O811        O  0.01014067  0.95102363  0.01070656    -1.09600
O812        O  0.05692663  0.51106753  0.98078155    -0.66300
Ni813      Ni  0.01207506  0.48880804  0.29522443     1.26300
O814        O  0.44211848  0.96252672  0.36871303    -0.66500
O815        O  0.03473324  0.95377994  0.25361087    -0.78800
C816        C  0.98920558  0.54986704  0.23437261     0.84700
O817        O  0.01326548  0.52663816  0.24652445    -0.66000
Ni818      Ni  0.05476920  0.93113129  0.03027682     1.27400
Ni819      Ni  0.48697126  0.98478691  0.05426837     1.26100
H820        H  0.50381845  0.54398000  0.01469231     0.39200
C821        C  0.38699274  0.89625532  0.26953425     0.80400
N822        N  0.41538084  0.89620955  0.24085044    -0.77900
C823        C  0.42898058  0.86179703  0.22526339     0.82800
N824        N  0.41537804  0.82738464  0.24084494    -0.77900
C825        C  0.38699091  0.82733887  0.26953033     0.82900
N826        N  0.37279742  0.86179719  0.28310213    -0.79600
C827        C  0.50361728  0.89575690  0.15317105     0.80400
N828        N  0.02124642  0.86179433  0.14922176    -0.77900
C829        C  0.50361612  0.82783322  0.15317037     0.82800
N830        N  0.47296252  0.82751532  0.17749666    -0.77900
C831        C  0.45933139  0.86179619  0.19338604     0.82900
N832        N  0.47296315  0.89607624  0.17749628    -0.79600
N833        N  0.12453232  0.79200120  0.55865891    -0.03300
C834        C  0.08971112  0.78486812  0.55440772    -0.00700
C835        C  0.08243147  0.76767645  0.51183342    -0.23600
C836        C  0.11376988  0.76383893  0.48908005    -0.23800
C837        C  0.13937044  0.77784057  0.51893028    -0.00800
H838        H  0.05787007  0.75482572  0.50099314     0.12900
H839        H  0.11795880  0.74681522  0.45765940     0.13000
N840        N  0.37451318  0.68159180  0.45749696    -0.03300
C841        C  0.40933437  0.68872561  0.46174838    -0.00700
C842        C  0.41661379  0.70591767  0.50432213    -0.23600
C843        C  0.38527559  0.70975459  0.52707559    -0.23800
C844        C  0.35967510  0.69575247  0.49722561    -0.00800
H845        H  0.44117462  0.71877057  0.51516099     0.12900
H846        H  0.38108666  0.72678063  0.55849437     0.13000
O847        O  0.21059451  0.67024365  0.59264736    -0.80700
O848        O  0.23578369  0.77663540  0.41318700    -0.65400
O849        O  0.23890552  0.70102373  0.51070580    -1.12000
C850        C  0.31541829  0.78233806  0.58838536     1.06100
O851        O  0.28845074  0.80335099  0.42351047    -0.78600
O852        O  0.31976002  0.74150788  0.46780108    -0.66200
Ni853      Ni  0.19427698  0.68113259  0.53027581     1.34900
C854        C  0.32557044  0.71551335  0.49843279     0.84900
O855        O  0.21431486  0.70377840  0.42027667    -0.79200
O856        O  0.17203126  0.68593915  0.46912871    -0.89500
C857        C  0.25984309  0.79986462  0.40103652     0.84500
O858        O  0.17928508  0.73208491  0.54835439    -0.67700
O859        O  0.32701568  0.78765232  0.54702771    -0.86900
C860        C  0.17347521  0.75807985  0.51772298     0.85300
C861        C  0.18362904  0.69125327  0.42777129     1.06900
H862        H  0.24522770  0.79397956  0.51468960     0.38700
O863        O  0.26014014  0.77257063  0.50545116    -1.09600
O864        O  0.30692580  0.71252392  0.53537735    -0.66300
Ni865      Ni  0.26207404  0.73478623  0.55426733     1.26300
O866        O  0.19211963  0.76106882  0.48077803    -0.66500
O867        O  0.28473254  0.76981297  0.59588050    -0.78800
C868        C  0.23920311  0.67372788  0.61511956     0.84700
O869        O  0.26326301  0.69695614  0.60296812    -0.66000
Ni870      Ni  0.30476932  0.79246041  0.48588098     1.27400
Ni871      Ni  0.23697205  0.73880701  0.46188938     1.26100
H872        H  0.25381755  0.67961554  0.50146719     0.39200
C873        C  0.13699308  0.82733972  0.57996260     0.80400
N874        N  0.16538169  0.82738477  0.60864507    -0.77900
C875        C  0.17898260  0.86179706  0.29089604     0.82800
N876        N  0.16538059  0.89620967  0.60864608    -0.77900
C877        C  0.13699271  0.89625595  0.57996285     0.82900
N878        N  0.12279825  0.86179822  0.56639397    -0.79600
C879        C  0.25362017  0.82783398  0.36298493     0.80400
N880        N  0.27124939  0.86179563  0.36693412    -0.77900
C881        C  0.25361879  0.89575753  0.36298818     0.82800
N882        N  0.22296474  0.89607709  0.33866313    -0.77900
C883        C  0.20933421  0.86179701  0.32277192     0.82900
N884        N  0.22296617  0.82751623  0.33866040    -0.79600
N885        N  0.12453169  0.93159539  0.55865984    -0.03300
C886        C  0.08971056  0.93872890  0.55440820    -0.00700
C887        C  0.08243052  0.95592303  0.51183509    -0.23600
C888        C  0.11376896  0.95976190  0.48908261    -0.23800
C889        C  0.13936972  0.94575798  0.51893237    -0.00800
H890        H  0.05786872  0.46877473  0.50099563     0.12900
H891        H  0.11795739  0.47678773  0.45766331     0.13000
N892        N  0.37451359  0.54199683  0.45750099    -0.03300
C893        C  0.40933513  0.53486352  0.46175197    -0.00700
C894        C  0.41661525  0.01766903  0.50432516    -0.23600
C895        C  0.38527671  0.01383002  0.52707780    -0.23800
C896        C  0.35967576  0.52783392  0.49722858    -0.00800
H897        H  0.44117710  0.00481762  0.51516493     0.12900
H898        H  0.38108809  0.99680359  0.55849657     0.13000
O899        O  0.28845061  0.92023911  0.42351339    -0.80700
O900        O  0.26326224  0.52663368  0.60297120    -0.65400
O901        O  0.26013941  0.95102065  0.50545455    -1.12000
C902        C  0.18362780  0.53233856  0.42777196     1.06100
O903        O  0.21059526  0.55335182  0.59264696    -0.78600
O904        O  0.17928564  0.99151007  0.54835740    -0.66200
Ni905      Ni  0.30476862  0.93112844  0.48588487     1.34900
C906        C  0.17347492  0.96551610  0.51772600     0.84900
O907        O  0.28473088  0.95377590  0.59588336    -0.79200
O908        O  0.32701472  0.93593549  0.54703186    -0.89500
C909        C  0.23920305  0.54986443  0.61512100     0.84500
O910        O  0.31976074  0.98208033  0.46780475    -0.67700
O911        O  0.17203035  0.53765451  0.46912938    -0.86900
C912        C  0.32557078  0.50807493  0.49843568     0.85300
C913        C  0.31541738  0.94125149  0.58838921     1.06900
H914        H  0.25381635  0.54397544  0.50146806     0.38700
O915        O  0.23890511  0.52256884  0.51070690    -1.09600
O916        O  0.19211986  0.96252526  0.48078189    -0.66300
Ni917      Ni  0.23697152  0.98478459  0.46189194     1.26300
O918        O  0.30692607  0.51106492  0.53538024    -0.66500
O919        O  0.21431380  0.01981290  0.42027757    -0.78800
C920        C  0.25984215  0.92372569  0.40104057     0.84700
O921        O  0.23578251  0.94695520  0.41319193    -0.66000
Ni922      Ni  0.19427646  0.54246178  0.53027636     1.27400
Ni923      Ni  0.26207338  0.48880465  0.55426981     1.26100
H924        H  0.24522600  0.92961150  0.51469424     0.39200
C925        C  0.24542637  0.57783427  0.65317160     0.78800
N926        N  0.27608006  0.57751534  0.67749717    -0.77900
C927        C  0.28971056  0.61179548  0.69338754     0.82800
N928        N  0.27607928  0.64607621  0.67749724    -0.77900
C929        C  0.24542607  0.64575796  0.65317077     0.82900
N930        N  0.22779651  0.61179643  0.64922237    -0.79600
C931        C  0.36205134  0.57733611  0.43619847     0.80400
N932        N  0.37624651  0.61179414  0.44976532    -0.77900
C933        C  0.36205252  0.64625255  0.43619454     0.82800
N934        N  0.33366408  0.64620704  0.40751202    -0.77900
C935        C  0.32006183  0.61179474  0.39193057     0.82900
N936        N  0.33366269  0.57738206  0.40751623    -0.79600
N937        N  0.12451692  0.68159260  0.39199072    -0.03300
C938        C  0.15933801  0.68872708  0.38773985    -0.00700
C939        C  0.16661741  0.70592239  0.34516710    -0.23600
C940        C  0.13527909  0.70975988  0.32241410    -0.23800
C941        C  0.10967858  0.69575517  0.35226334    -0.00800
H942        H  0.19117832  0.71877560  0.33432808     0.12900
H943        H  0.13108998  0.72678573  0.29099499     0.13000
N944        N  0.37453049  0.79199904  0.62416605    -0.03300
C945        C  0.33970952  0.78486385  0.62841661    -0.00700
C946        C  0.33242985  0.76766857  0.67098934    -0.23600
C947        C  0.36376801  0.76383043  0.69374237    -0.23800
C948        C  0.38936853  0.77783620  0.66389360    -0.00800
H949        H  0.30786878  0.75481553  0.68182804     0.12900
H950        H  0.36795688  0.74680329  0.72516058     0.13000
O951        O  0.03844886  0.80334742  0.42598178    -0.80700
O952        O  0.01326504  0.69695795  0.57985567    -0.65400
O953        O  0.01014001  0.77257076  0.34403944    -1.12000
C954        C  0.43362656  0.69125329  0.42171793     1.06100
O955        O  0.46059688  0.67024405  0.59017695    -0.78600
O956        O  0.42928711  0.73208568  0.63446745    -0.66200
Ni957      Ni  0.05476860  0.79246021  0.36361062     1.34900
C958        C  0.42347485  0.75807876  0.66509970     0.84900
O959        O  0.03473415  0.76981525  0.58694420    -0.79200
O960        O  0.07701611  0.78765531  0.63579687    -0.89500
C961        C  0.98920554  0.67372948  0.56770444     0.84500
O962        O  0.06976077  0.74150740  0.38168924    -0.67700
O963        O  0.42203018  0.68593956  0.38036031    -0.86900
C964        C  0.07557250  0.71551387  0.35105726     0.85300
C965        C  0.06541947  0.78234108  0.59443920     1.06900
H966        H  0.50381664  0.67961711  0.34802334     0.38700
O967        O  0.48890581  0.70102400  0.33878494    -1.09600
O968        O  0.44211888  0.76106818  0.70204428    -0.66300
Ni969      Ni  0.48697064  0.73880706  0.38760089     1.26300
O970        O  0.05692815  0.71252481  0.31411293    -0.66500
O971        O  0.46431215  0.70377837  0.42921359    -0.78800
C972        C  0.50983951  0.79986354  0.44845327     0.84700
O973        O  0.48577979  0.77663561  0.43630191    -0.66000
Ni974      Ni  0.44427765  0.68113318  0.65254743     1.27400
Ni975      Ni  0.01207547  0.73478721  0.62855683     1.26100
H976        H  0.99522718  0.79398042  0.66813332     0.39200
C977        C  0.99542936  0.57783634  0.52965479     0.80400
N978        N  0.47779960  0.61179854  0.53360305    -0.77900
C979        C  0.99542939  0.64575989  0.52965392     0.82800
N980        N  0.02608387  0.64607753  0.50532960    -0.77900
C981        C  0.03971486  0.61179699  0.48943925     0.82900
N982        N  0.02608329  0.57751680  0.50532901    -0.79600
C983        C  0.11205590  0.64625362  0.41329395     0.80400
N984        N  0.12624919  0.61179493  0.39972294    -0.77900
C985        C  0.11205441  0.57733724  0.41329304     0.82800
N986        N  0.08366778  0.57738393  0.44197929    -0.77900
C987        C  0.07006660  0.61179668  0.45756305     0.82900
N988        N  0.08366780  0.64620879  0.44197794    -0.79600
N989        N  0.12451523  0.54199715  0.39199133    -0.03300
C990        C  0.15933638  0.53486220  0.38774071    -0.00700
C991        C  0.16661666  0.01766646  0.34516864    -0.23600
C992        C  0.13527848  0.01382802  0.32241602    -0.23800
C993        C  0.10967739  0.52783378  0.35226456    -0.00800
H994        H  0.19117849  0.00481420  0.33432971     0.12900
H995        H  0.13109021  0.99680143  0.29099784     0.13000
N996        N  0.37453074  0.93159466  0.62416953    -0.03300
C997        C  0.33970935  0.93872881  0.62842029    -0.00700
C998        C  0.33242936  0.95592548  0.67099177    -0.23600
C999        C  0.36376764  0.95976474  0.69374387    -0.23800
C1000       C  0.38936868  0.94575876  0.66389582    -0.00800
H1001       H  0.30786761  0.46877808  0.68183040     0.12900
H1002       H  0.36795601  0.47679207  0.72516134     0.13000
O1003       O  0.46059618  0.55335195  0.59017749    -0.80700
O1004       O  0.48578225  0.94695743  0.43630333    -0.65400
O1005       O  0.48890563  0.52257099  0.33878598    -1.12000
C1006       C  0.06541904  0.94125426  0.59443911     1.06100
O1007       O  0.03845008  0.92024079  0.42598089    -0.78600
O1008       O  0.06975976  0.98208280  0.38169086    -0.66200
Ni1009     Ni  0.44427694  0.54246302  0.65254907     1.34900
C1010       C  0.07557130  0.50807665  0.35105890     0.84900
O1011       O  0.46431353  0.01981537  0.42921467    -0.79200
O1012       O  0.42203024  0.53765622  0.38036316    -0.89500
C1013       C  0.50984151  0.92372714  0.44845392     0.84500
O1014       O  0.42928525  0.99151109  0.63447002    -0.67700
O1015       O  0.07701599  0.93593887  0.63579660    -0.86900
C1016       C  0.42347432  0.96551670  0.66510171     0.85300
C1017       C  0.43362733  0.53234034  0.42172055     1.06900
H1018       H  0.99523042  0.92961771  0.66813547     0.38700
O1019       O  0.01014065  0.95102362  0.34403990    -1.09600
O1020       O  0.05692659  0.51106751  0.31411481    -0.66300
Ni1021     Ni  0.01207509  0.48880805  0.62855773     1.26300
O1022       O  0.44211853  0.96252672  0.70204633    -0.66500
O1023       O  0.03473328  0.95377993  0.58694415    -0.78800
C1024       C  0.98920562  0.54986703  0.56770593     0.84700
O1025       O  0.01326554  0.52663817  0.57985774    -0.66000
Ni1026     Ni  0.05476920  0.93113128  0.36361013     1.27400
Ni1027     Ni  0.48697126  0.98478692  0.38760174     1.26100
H1028       H  0.50381852  0.54398001  0.34802559     0.39200
C1029       C  0.38699267  0.89625532  0.60286757     0.80400
N1030       N  0.41538073  0.89620958  0.57418368    -0.77900
C1031       C  0.42898058  0.86179707  0.55859680     0.82800
N1032       N  0.41537802  0.82738467  0.57417830    -0.77900
C1033       C  0.38699089  0.82733887  0.60286365     0.82900
N1034       N  0.37279737  0.86179719  0.61643546    -0.79600
C1035       C  0.50361729  0.89575686  0.48650443     0.80400
N1036       N  0.02124642  0.86179429  0.48255525    -0.77900
C1037       C  0.50361615  0.82783318  0.48650392     0.82800
N1038       N  0.47296255  0.82751533  0.51083020    -0.77900
C1039       C  0.45933145  0.86179622  0.52671956     0.82900
N1040       N  0.47296320  0.89607625  0.51082976    -0.79600
N1041       N  0.12453234  0.79200119  0.89199231    -0.03300
C1042       C  0.08971114  0.78486817  0.88774112    -0.00700
C1043       C  0.08243144  0.76767647  0.84516688    -0.23600
C1044       C  0.11376984  0.76383889  0.82241347    -0.23800
C1045       C  0.13937043  0.77784058  0.85226364    -0.00800
H1046       H  0.05787002  0.75482575  0.83432671     0.12900
H1047       H  0.11795873  0.74681514  0.79099288     0.13000
N1048       N  0.37451316  0.68159179  0.79083030    -0.03300
C1049       C  0.40933435  0.68872557  0.79508169    -0.00700
C1050       C  0.41661379  0.70591768  0.83765546    -0.23600
C1051       C  0.38527559  0.70975458  0.86040904    -0.23800
C1052       C  0.35967509  0.69575251  0.83055897    -0.00800
H1053       H  0.44117463  0.71877061  0.84849424     0.12900
H1054       H  0.38108669  0.72678053  0.89182782     0.13000
O1055       O  0.21059446  0.67024370  0.92598078    -0.80700
O1056       O  0.23578368  0.77663540  0.74652023    -0.65400
O1057       O  0.23890549  0.70102378  0.84403911    -1.12000
C1058       C  0.31541830  0.78233809  0.92171873     1.06100
O1059       O  0.28845073  0.80335099  0.75684380    -0.78600
O1060       O  0.31975990  0.74150790  0.80113441    -0.66200
Ni1061     Ni  0.19427697  0.68113263  0.86360919     1.34900
C1062       C  0.32557039  0.71551340  0.83176611     0.84900
O1063       O  0.21431484  0.70377843  0.75361005    -0.79200
O1064       O  0.17203125  0.68593917  0.80246210    -0.89500
C1065       C  0.25984312  0.79986458  0.73436974     0.84500
O1066       O  0.17928511  0.73208498  0.88168770    -0.67700
O1067       O  0.32701569  0.78765234  0.88036106    -0.86900
C1068       C  0.17347519  0.75807991  0.85105628     0.85300
C1069       C  0.18362903  0.69125330  0.76110467     1.06900
H1070       H  0.24522765  0.79397966  0.84802315     0.38700
O1071       O  0.26014009  0.77257072  0.83878454    -1.09600
O1072       O  0.30692574  0.71252393  0.86871065    -0.66300
Ni1073     Ni  0.26207402  0.73478624  0.88760065     1.26300
O1074       O  0.19211956  0.76106889  0.81411129    -0.66500
O1075       O  0.28473256  0.76981296  0.92921386    -0.78800
C1076       C  0.23920307  0.67372789  0.94845294     0.84700
O1077       O  0.26326301  0.69695604  0.93630137    -0.66000
Ni1078     Ni  0.30476929  0.79246044  0.81921435     1.27400
Ni1079     Ni  0.23697200  0.73880708  0.79522271     1.26100
H1080       H  0.25381749  0.67961560  0.83480039     0.39200
C1081       C  0.13699313  0.82733971  0.91329593     0.80400
N1082       N  0.16538165  0.82738472  0.94197854    -0.77900
C1083       C  0.17898260  0.86179707  0.62422935     0.82800
N1084       N  0.16538063  0.89620961  0.94197941    -0.77900
C1085       C  0.13699271  0.89625593  0.91329625     0.82900
N1086       N  0.12279831  0.86179820  0.89972727    -0.79600
C1087       C  0.25362023  0.82783396  0.69631813     0.80400
N1088       N  0.27124941  0.86179563  0.70026738    -0.77900
C1089       C  0.25361877  0.89575753  0.69632150     0.82800
N1090       N  0.22296470  0.89607706  0.67199651    -0.77900
C1091       C  0.20933422  0.86179699  0.65610520     0.82900
N1092       N  0.22296622  0.82751621  0.67199362    -0.79600
N1093       N  0.12453171  0.93159538  0.89199327    -0.03300
C1094       C  0.08971059  0.93872892  0.88774160    -0.00700
C1095       C  0.08243056  0.95592298  0.84516844    -0.23600
C1096       C  0.11376900  0.95976174  0.82241589    -0.23800
C1097       C  0.13936974  0.94575791  0.85226573    -0.00800
H1098       H  0.05786867  0.46877449  0.83432884     0.12900
H1099       H  0.11795742  0.47678766  0.79099668     0.13000
N1100       N  0.37451360  0.54199682  0.79083429    -0.03300
C1101       C  0.40933514  0.53486353  0.79508532    -0.00700
C1102       C  0.41661524  0.01766911  0.83765855    -0.23600
C1103       C  0.38527671  0.01383011  0.86041118    -0.23800
C1104       C  0.35967578  0.52783398  0.83056191    -0.00800
H1105       H  0.44117708  0.00481765  0.84849836     0.12900
H1106       H  0.38108810  0.99680363  0.89182992     0.13000
O1107       O  0.28845063  0.92023923  0.75684665    -0.80700
O1108       O  0.26326228  0.52663371  0.93630454    -0.65400
O1109       O  0.26013938  0.95102069  0.83878791    -1.12000
C1110       C  0.18362777  0.53233857  0.76110529     1.06100
O1111       O  0.21059532  0.55335186  0.92598026    -0.78600
O1112       O  0.17928561  0.99151010  0.88169067    -0.66200
Ni1113     Ni  0.30476861  0.93112848  0.81921820     1.34900
C1114       C  0.17347490  0.96551613  0.85105929     0.84900
O1115       O  0.28473086  0.95377594  0.92921672    -0.79200
O1116       O  0.32701471  0.93593550  0.88036522    -0.89500
C1117       C  0.23920310  0.54986443  0.94845434     0.84500
O1118       O  0.31976076  0.98208036  0.80113816    -0.67700
O1119       O  0.17203036  0.53765454  0.80246270    -0.86900
C1120       C  0.32557081  0.50807496  0.83176907     0.85300
C1121       C  0.31541737  0.94125155  0.92172256     1.06900
H1122       H  0.25381637  0.54397550  0.83480124     0.38700
O1123       O  0.23890511  0.52256889  0.84404020    -1.09600
O1124       O  0.19211981  0.96252531  0.81411517    -0.66300
Ni1125     Ni  0.23697149  0.98478463  0.79522527     1.26300
O1126       O  0.30692608  0.51106499  0.86871363    -0.66500
O1127       O  0.21431380  0.01981293  0.75361087    -0.78800
C1128       C  0.25984213  0.92372572  0.73437389     0.84700
O1129       O  0.23578245  0.94695514  0.74652533    -0.66000
Ni1130     Ni  0.19427649  0.54246184  0.86360964     1.27400
Ni1131     Ni  0.26207341  0.48880472  0.88760315     1.26100
H1132       H  0.24522598  0.92961154  0.84802763     0.39200
C1133       C  0.24542642  0.57783425  0.98650494     0.78800
N1134       N  0.27608009  0.57751534  0.01083053    -0.77900
C1135       C  0.28971058  0.61179551  0.02672087     0.82800
N1136       N  0.27607926  0.64607623  0.01083058    -0.77900
C1137       C  0.24542603  0.64575796  0.98650416     0.82900
N1138       N  0.22779654  0.61179640  0.98255567    -0.79600
C1139       C  0.36205136  0.57733610  0.76953169     0.80400
N1140       N  0.37624653  0.61179413  0.78309855    -0.77900
C1141       C  0.36205246  0.64625255  0.76952791     0.82800
N1142       N  0.33366400  0.64620706  0.74084542    -0.77900
C1143       C  0.32006184  0.61179476  0.72526383     0.82900
N1144       N  0.33366271  0.57738207  0.74084944    -0.79600
N1145       N  0.12451693  0.68159261  0.72532399    -0.03300
C1146       C  0.15933802  0.68872714  0.72107318    -0.00700
C1147       C  0.16661745  0.70592243  0.67850044    -0.23600
C1148       C  0.13527913  0.70975989  0.65574744    -0.23800
C1149       C  0.10967860  0.69575519  0.68559662    -0.00800
H1150       H  0.19117835  0.71877563  0.66766140     0.12900
H1151       H  0.13109002  0.72678578  0.62432831     0.13000
N1152       N  0.37453051  0.79199906  0.95749941    -0.03300
C1153       C  0.33970952  0.78486393  0.96174997    -0.00700
C1154       C  0.33242982  0.76766870  0.00432268    -0.23600
C1155       C  0.36376797  0.76383049  0.02707563    -0.23800
C1156       C  0.38936852  0.77783621  0.99722694    -0.00800
H1157       H  0.30786875  0.75481569  0.01516141     0.12900
H1158       H  0.36795680  0.74680328  0.05849384     0.13000
O1159       O  0.03844892  0.80334741  0.75931511    -0.80700
O1160       O  0.01326506  0.69695799  0.91318892    -0.65400
O1161       O  0.01013999  0.77257079  0.67737271    -1.12000
C1162       C  0.43362653  0.69125325  0.75505123     1.06100
O1163       O  0.46059689  0.67024410  0.92351025    -0.78600
O1164       O  0.42928717  0.73208577  0.96780077    -0.66200
Ni1165     Ni  0.05476859  0.79246025  0.69694392     1.34900
C1166       C  0.42347485  0.75807877  0.99843310     0.84900
O1167       O  0.03473418  0.76981532  0.92027754    -0.79200
O1168       O  0.07701616  0.78765537  0.96913022    -0.89500
C1169       C  0.98920556  0.67372950  0.90103774     0.84500
O1170       O  0.06976080  0.74150744  0.71502247    -0.67700
O1171       O  0.42203015  0.68593953  0.71369363    -0.86900
C1172       C  0.07557250  0.71551386  0.68439052     0.85300
C1173       C  0.06541950  0.78234115  0.92777257     1.06900
H1174       H  0.50381663  0.67961722  0.68135655     0.38700
O1175       O  0.48890579  0.70102405  0.67211822    -1.09600
O1176       O  0.44211883  0.76106810  0.03537773    -0.66300
Ni1177     Ni  0.48697062  0.73880711  0.72093416     1.26300
O1178       O  0.05692808  0.71252474  0.64744625    -0.66500
O1179       O  0.46431210  0.70377841  0.76254685    -0.78800
C1180       C  0.50983946  0.79986357  0.78178651     0.84700
O1181       O  0.48577972  0.77663570  0.76963508    -0.66000
Ni1182     Ni  0.44427764  0.68113325  0.98588074     1.27400
Ni1183     Ni  0.01207550  0.73478724  0.96189011     1.26100
H1184       H  0.99522709  0.79398045  0.00146675     0.39200
C1185       C  0.99542940  0.57783632  0.86298819     0.80400
N1186       N  0.47779965  0.61179851  0.86693651    -0.77900
C1187       C  0.99542943  0.64575986  0.86298731     0.82800
N1188       N  0.02608393  0.64607745  0.83866302    -0.77900
C1189       C  0.03971487  0.61179693  0.82277259     0.82900
N1190       N  0.02608334  0.57751675  0.83866243    -0.79600
C1191       C  0.11205591  0.64625361  0.74662719     0.80400
N1192       N  0.12624920  0.61179492  0.73305616    -0.77900
C1193       C  0.11205442  0.57733724  0.74662630     0.82800
N1194       N  0.08366779  0.57738393  0.77531253    -0.77900
C1195       C  0.07006660  0.61179667  0.79089630     0.82900
N1196       N  0.08366780  0.64620877  0.77531119    -0.79600
N1197       N  0.12451520  0.54199712  0.72532466    -0.03300
C1198       C  0.15933635  0.53486212  0.72107408    -0.00700
C1199       C  0.16661670  0.01766648  0.67850199    -0.23600
C1200       C  0.13527852  0.01382808  0.65574936    -0.23800
C1201       C  0.10967739  0.52783381  0.68559786    -0.00800
H1202       H  0.19117853  0.00481422  0.66766311     0.12900
H1203       H  0.13109025  0.99680153  0.62433116     0.13000
N1204       N  0.37453076  0.93159473  0.95750285    -0.03300
C1205       C  0.33970936  0.93872890  0.96175361    -0.00700
C1206       C  0.33242936  0.95592558  0.00432505    -0.23600
C1207       C  0.36376762  0.95976467  0.02707719    -0.23800
C1208       C  0.38936867  0.94575881  0.99722914    -0.00800
H1209       H  0.30786764  0.46877823  0.01516365     0.12900
H1210       H  0.36795597  0.47679201  0.05849472     0.13000
O1211       O  0.46059618  0.55335195  0.92351078    -0.80700
O1212       O  0.48578222  0.94695745  0.76963661    -0.65400
O1213       O  0.48890567  0.52257101  0.67211929    -1.12000
C1214       C  0.06541906  0.94125430  0.92777248     1.06100
O1215       O  0.03845005  0.92024083  0.75931425    -0.78600
O1216       O  0.06975974  0.98208289  0.71502425    -0.66200
Ni1217     Ni  0.44427694  0.54246304  0.98588235     1.34900
C1218       C  0.07557132  0.50807667  0.68439222     0.84900
O1219       O  0.46431355  0.01981536  0.76254800    -0.79200
O1220       O  0.42203029  0.53765627  0.71369653    -0.89500
C1221       C  0.50984148  0.92372716  0.78178723     0.84500
O1222       O  0.42928525  0.99151113  0.96780331    -0.67700
O1223       O  0.07701599  0.93593889  0.96912995    -0.86900
C1224       C  0.42347429  0.96551680  0.99843504     0.85300
C1225       C  0.43362736  0.53234035  0.75505392     1.06900
H1226       H  0.99523047  0.92961795  0.00146873     0.38700
O1227       O  0.01014066  0.95102356  0.67737322    -1.09600
O1228       O  0.05692663  0.51106749  0.64744809    -0.66300
Ni1229     Ni  0.01207508  0.48880809  0.96189110     1.26300
O1230       O  0.44211849  0.96252680  0.03537967    -0.66500
O1231       O  0.03473331  0.95378000  0.92027752    -0.78800
C1232       C  0.98920563  0.54986700  0.90103927     0.84700
O1233       O  0.01326557  0.52663819  0.91319113    -0.66000
Ni1234     Ni  0.05476922  0.93113133  0.69694352     1.27400
Ni1235     Ni  0.48697129  0.98478693  0.72093504     1.26100
H1236       H  0.50381856  0.54398003  0.68135886     0.39200
C1237       C  0.38699273  0.89625536  0.93620097     0.80400
N1238       N  0.41538071  0.89620960  0.90751694    -0.77900
C1239       C  0.42898057  0.86179707  0.89193011     0.82800
N1240       N  0.41537806  0.82738469  0.90751173    -0.77900
C1241       C  0.38699091  0.82733890  0.93619704     0.82900
N1242       N  0.37279745  0.86179723  0.94976893    -0.79600
C1243       C  0.50361727  0.89575686  0.81983776     0.80400
N1244       N  0.02124642  0.86179431  0.81588853    -0.77900
C1245       C  0.50361609  0.82783319  0.81983713     0.82800
N1246       N  0.47296251  0.82751529  0.84416346    -0.77900
C1247       C  0.45933141  0.86179618  0.86005283     0.82900
N1248       N  0.47296317  0.89607621  0.84416305    -0.79600
N1249       N  0.62453233  0.29200125  0.22532556    -0.03300
C1250       C  0.58971110  0.28486826  0.22107433    -0.00700
C1251       C  0.58243144  0.26767654  0.17850006    -0.23600
C1252       C  0.61376990  0.26383885  0.15574682    -0.23800
C1253       C  0.63937046  0.27784058  0.18559698    -0.00800
H1254       H  0.55787005  0.25482583  0.16765983     0.12900
H1255       H  0.61795888  0.24681505  0.12432625     0.13000
N1256       N  0.87451317  0.18159180  0.12416368    -0.03300
C1257       C  0.90933437  0.18872560  0.12841511    -0.00700
C1258       C  0.91661379  0.20591778  0.17098881    -0.23600
C1259       C  0.88527558  0.20975456  0.19374231    -0.23800
C1260       C  0.85967509  0.19575244  0.16389233    -0.00800
H1261       H  0.94117459  0.21877075  0.18182763     0.12900
H1262       H  0.88108664  0.22678050  0.22516116     0.13000
O1263       O  0.71059440  0.17024384  0.25931419    -0.80700
O1264       O  0.73578365  0.27663544  0.07985371    -0.65400
O1265       O  0.73890545  0.20102387  0.17737256    -1.12000
C1266       C  0.81541831  0.28233809  0.25505203     1.06100
O1267       O  0.78845073  0.30335091  0.09017704    -0.78600
O1268       O  0.81976002  0.24150791  0.13446784    -0.66200
Ni1269     Ni  0.69427694  0.18113270  0.19694257     1.34900
C1270       C  0.82557043  0.21551332  0.16509949     0.84900
O1271       O  0.71431486  0.20377861  0.08694338    -0.79200
O1272       O  0.67203132  0.18593912  0.13579540    -0.89500
C1273       C  0.75984307  0.29986455  0.06770311     0.84500
O1274       O  0.67928507  0.23208503  0.21502110    -0.67700
O1275       O  0.82701563  0.28765248  0.21369437    -0.86900
C1276       C  0.67347523  0.25807997  0.18438970     0.85300
C1277       C  0.68362908  0.19125340  0.09443798     1.06900
H1278       H  0.74522787  0.29397939  0.18135646     0.38700
O1279       O  0.76014022  0.27257061  0.17211792    -1.09600
O1280       O  0.80692577  0.21252379  0.20204402    -0.66300
Ni1281     Ni  0.76207409  0.23478620  0.22093406     1.26300
O1282       O  0.69211963  0.26106892  0.14744474    -0.66500
O1283       O  0.78473263  0.26981284  0.26254725    -0.78800
C1284       C  0.73920308  0.17372789  0.28178626     0.84700
O1285       O  0.76326305  0.19695600  0.26963473    -0.66000
Ni1286     Ni  0.80476931  0.29246046  0.15254763     1.27400
Ni1287     Ni  0.73697204  0.23880710  0.12855613     1.26100
H1288       H  0.75381733  0.17961581  0.16813395     0.39200
C1289       C  0.63699312  0.32733975  0.24662923     0.80400
N1290       N  0.66538173  0.32738479  0.27531169    -0.77900
C1291       C  0.67898255  0.36179705  0.95756277     0.82800
N1292       N  0.66538060  0.39620968  0.27531269    -0.77900
C1293       C  0.63699265  0.39625594  0.24662957     0.82900
N1294       N  0.62279819  0.36179822  0.23306074    -0.79600
C1295       C  0.75362015  0.32783390  0.02965149     0.80400
N1296       N  0.77124939  0.36179555  0.03360065    -0.77900
C1297       C  0.75361876  0.39575744  0.02965489     0.82800
N1298       N  0.72296469  0.39607703  0.00532987    -0.77900
C1299       C  0.70933420  0.36179697  0.98943853     0.82900
N1300       N  0.72296611  0.32751618  0.00532705    -0.79600
N1301       N  0.62453164  0.43159535  0.22532653    -0.03300
C1302       C  0.58971053  0.43872890  0.22107491    -0.00700
C1303       C  0.58243052  0.45592310  0.17850186    -0.23600
C1304       C  0.61376894  0.45976188  0.15574926    -0.23800
C1305       C  0.63936969  0.44575794  0.18559903    -0.00800
H1306       H  0.55786867  0.96877469  0.16766240     0.12900
H1307       H  0.61795738  0.97678770  0.12432999     0.13000
N1308       N  0.87451361  0.04199685  0.12416765    -0.03300
C1309       C  0.90933515  0.03486354  0.12841866    -0.00700
C1310       C  0.91661522  0.51766908  0.17099185    -0.23600
C1311       C  0.88527669  0.51383008  0.19374444    -0.23800
C1312       C  0.85967576  0.02783393  0.16389521    -0.00800
H1313       H  0.94117704  0.50481763  0.18183171     0.12900
H1314       H  0.88108806  0.49680362  0.22516320     0.13000
O1315       O  0.78845065  0.42023908  0.09018010    -0.80700
O1316       O  0.76326226  0.02663372  0.26963786    -0.65400
O1317       O  0.76013936  0.45102057  0.17212126    -1.12000
C1318       C  0.68362782  0.03233857  0.09443861     1.06100
O1319       O  0.71059532  0.05335189  0.25931359    -0.78600
O1320       O  0.67928560  0.49151010  0.21502408    -0.66200
Ni1321     Ni  0.80476861  0.43112843  0.15255162     1.34900
C1322       C  0.67347488  0.46551614  0.18439268     0.84900
O1323       O  0.78473082  0.45377584  0.26255004    -0.79200
O1324       O  0.82701469  0.43593548  0.21369858    -0.89500
C1325       C  0.73920309  0.04986448  0.28178765     0.84500
O1326       O  0.81976083  0.48208028  0.13447152    -0.67700
O1327       O  0.67203041  0.03765458  0.13579604    -0.86900
C1328       C  0.82557080  0.00807490  0.16510237     0.85300
C1329       C  0.81541734  0.44125150  0.25505590     1.06900
H1330       H  0.75381634  0.04397533  0.16813459     0.38700
O1331       O  0.73890515  0.02256880  0.17737352    -1.09600
O1332       O  0.69211983  0.46252536  0.14744854    -0.66300
Ni1333     Ni  0.73697155  0.48478453  0.12855861     1.26300
O1334       O  0.80692608  0.01106489  0.20204693    -0.66500
O1335       O  0.71431387  0.51981286  0.08694421    -0.78800
C1336       C  0.75984217  0.42372559  0.06770732     0.84700
O1337       O  0.73578252  0.44695508  0.07985868    -0.66000
Ni1338     Ni  0.69427655  0.04246180  0.19694298     1.27400
Ni1339     Ni  0.76207340  0.98880466  0.22093648     1.26100
H1340       H  0.74522587  0.42961130  0.18136095     0.39200
C1341       C  0.74542640  0.07783428  0.31983825     0.78800
N1342       N  0.77608009  0.07751534  0.34416383    -0.77900
C1343       C  0.78971051  0.11179548  0.36005430     0.82800
N1344       N  0.77607920  0.14607622  0.34416403    -0.77900
C1345       C  0.74542603  0.14575795  0.31983746     0.82900
N1346       N  0.72779653  0.11179641  0.31588897    -0.79600
C1347       C  0.86205132  0.07733615  0.10286512     0.80400
N1348       N  0.87624652  0.11179416  0.11643191    -0.77900
C1349       C  0.86205247  0.14625259  0.10286125     0.82800
N1350       N  0.83366399  0.14620711  0.07417879    -0.77900
C1351       C  0.82006181  0.11179479  0.05859724     0.82900
N1352       N  0.83366270  0.07738212  0.07418283    -0.79600
N1353       N  0.62451695  0.18159269  0.05865740    -0.03300
C1354       C  0.65933805  0.18872725  0.05440655    -0.00700
C1355       C  0.66661745  0.20592255  0.01183381    -0.23600
C1356       C  0.63527915  0.20975991  0.98908079    -0.23800
C1357       C  0.60967862  0.19575527  0.01893002    -0.00800
H1358       H  0.69117835  0.21877574  0.00099473     0.12900
H1359       H  0.63109003  0.22678566  0.95766155     0.13000
N1360       N  0.87453052  0.29199914  0.29083267    -0.03300
C1361       C  0.83970954  0.28486397  0.29508324    -0.00700
C1362       C  0.83242984  0.26766875  0.33765597    -0.23600
C1363       C  0.86376797  0.26383060  0.36040906    -0.23800
C1364       C  0.88936852  0.27783629  0.33056027    -0.00800
H1365       H  0.80786877  0.25481569  0.34849461     0.12900
H1366       H  0.86795678  0.24680345  0.39182725     0.13000
O1367       O  0.53844890  0.30334750  0.09264833    -0.80700
O1368       O  0.51326506  0.19695787  0.24652247    -0.65400
O1369       O  0.51014006  0.27257074  0.01070606    -1.12000
C1370       C  0.93362656  0.19125326  0.08838465     1.06100
O1371       O  0.96059686  0.17024398  0.25684364    -0.78600
O1372       O  0.92928713  0.23208574  0.30113404    -0.66200
Ni1373     Ni  0.55476864  0.29246028  0.03027721     1.34900
C1374       C  0.92347482  0.25807876  0.33176639     0.84900
O1375       O  0.53473419  0.26981518  0.25361088    -0.79200
O1376       O  0.57701618  0.28765525  0.30246352    -0.89500
C1377       C  0.48920556  0.17372942  0.23437121     0.84500
O1378       O  0.56976072  0.24150744  0.04835577    -0.67700
O1379       O  0.92203016  0.18593963  0.04702703    -0.86900
C1380       C  0.57557249  0.21551387  0.01772381     0.85300
C1381       C  0.56541950  0.28234107  0.26110586     1.06900
H1382       H  0.00381668  0.17961728  0.01468974     0.38700
O1383       O  0.98890580  0.20102406  0.00545148    -1.09600
O1384       O  0.94211882  0.26106808  0.36871102    -0.66300
Ni1385     Ni  0.98697064  0.23880706  0.05426747     1.26300
O1386       O  0.55692811  0.21252472  0.98077950    -0.66500
O1387       O  0.96431218  0.20377830  0.09588026    -0.78800
C1388       C  0.00983949  0.29986361  0.11511978     0.84700
O1389       O  0.98577978  0.27663567  0.10296837    -0.66000
Ni1390     Ni  0.94427761  0.18113321  0.31921408     1.27400
Ni1391     Ni  0.51207553  0.23478715  0.29522358     1.26100
H1392       H  0.49522720  0.29398036  0.33480004     0.39200
C1393       C  0.49542935  0.07783637  0.19632148     0.80400
N1394       N  0.97779961  0.11179856  0.20026976    -0.77900
C1395       C  0.49542943  0.14575987  0.19632070     0.82800
N1396       N  0.52608392  0.14607752  0.17199636    -0.77900
C1397       C  0.53971488  0.11179699  0.15610594     0.82900
N1398       N  0.52608330  0.07751681  0.17199573    -0.79600
C1399       C  0.61205594  0.14625366  0.07996056     0.80400
N1400       N  0.62624927  0.11179496  0.06638956    -0.77900
C1401       C  0.61205442  0.07733726  0.07995956     0.82800
N1402       N  0.58366775  0.07738394  0.10864576    -0.77900
C1403       C  0.57006660  0.11179668  0.12422961     0.82900
N1404       N  0.58366779  0.14620878  0.10864444    -0.79600
N1405       N  0.62451525  0.04199717  0.05865792    -0.03300
C1406       C  0.65933640  0.03486214  0.05440736    -0.00700
C1407       C  0.66661672  0.51766646  0.01183527    -0.23600
C1408       C  0.63527854  0.51382813  0.98908265    -0.23800
C1409       C  0.60967742  0.02783381  0.01893119    -0.00800
H1410       H  0.69117851  0.50481410  0.00099635     0.12900
H1411       H  0.63109025  0.49680155  0.95766444     0.13000
N1412       N  0.87453076  0.43159474  0.29083615    -0.03300
C1413       C  0.83970934  0.43872885  0.29508692    -0.00700
C1414       C  0.83242935  0.45592556  0.33765835    -0.23600
C1415       C  0.86376763  0.45976464  0.36041045    -0.23800
C1416       C  0.88936866  0.44575876  0.33056243    -0.00800
H1417       H  0.80786764  0.96877814  0.34849703     0.12900
H1418       H  0.86795604  0.97679204  0.39182792     0.13000
O1419       O  0.96059615  0.05335203  0.25684416    -0.80700
O1420       O  0.98578222  0.44695760  0.10297004    -0.65400
O1421       O  0.98890560  0.02257093  0.00545263    -1.12000
C1422       C  0.56541905  0.44125431  0.26110581     1.06100
O1423       O  0.53845002  0.42024093  0.09264753    -0.78600
O1424       O  0.56975979  0.48208286  0.04835761    -0.66200
Ni1425     Ni  0.94427691  0.04246303  0.31921569     1.34900
C1426       C  0.57557135  0.00807663  0.01772560     0.84900
O1427       O  0.96431355  0.51981545  0.09588135    -0.79200
O1428       O  0.92203037  0.03765640  0.04702986    -0.89500
C1429       C  0.00984150  0.42372731  0.11512061     0.84500
O1430       O  0.92928526  0.49151102  0.30113661    -0.67700
O1431       O  0.57701601  0.43593883  0.30246324    -0.86900
C1432       C  0.92347431  0.46551671  0.33176837     0.85300
C1433       C  0.93362741  0.03234042  0.08838726     1.06900
H1434       H  0.49523040  0.42961788  0.33480203     0.38700
O1435       O  0.51014060  0.45102363  0.01070656    -1.09600
O1436       O  0.55692662  0.01106753  0.98078155    -0.66300
Ni1437     Ni  0.51207506  0.98880802  0.29522443     1.26300
O1438       O  0.94211846  0.46252681  0.36871306    -0.66500
O1439       O  0.53473329  0.45378001  0.25361089    -0.78800
C1440       C  0.48920558  0.04986706  0.23437263     0.84700
O1441       O  0.51326548  0.02663817  0.24652444    -0.66000
Ni1442     Ni  0.55476916  0.43113138  0.03027682     1.27400
Ni1443     Ni  0.98697125  0.48478702  0.05426839     1.26100
H1444       H  0.00381835  0.04397977  0.01469232     0.39200
C1445       C  0.88699276  0.39625542  0.26953428     0.80400
N1446       N  0.91538084  0.39620968  0.24085043    -0.77900
C1447       C  0.92898058  0.36179717  0.22526336     0.82800
N1448       N  0.91537804  0.32738478  0.24084493    -0.77900
C1449       C  0.88699094  0.32733898  0.26953033     0.82900
N1450       N  0.87279743  0.36179729  0.28310214    -0.79600
C1451       C  0.00361728  0.39575696  0.15317105     0.80400
N1452       N  0.52124644  0.36179438  0.14922179    -0.77900
C1453       C  0.00361608  0.32783325  0.15317039     0.82800
N1454       N  0.97296248  0.32751538  0.17749666    -0.77900
C1455       C  0.95933137  0.36179629  0.19338602     0.82900
N1456       N  0.97296315  0.39607631  0.17749629    -0.79600
N1457       N  0.62453232  0.29200126  0.55865887    -0.03300
C1458       C  0.58971112  0.28486823  0.55440766    -0.00700
C1459       C  0.58243153  0.26767645  0.51183341    -0.23600
C1460       C  0.61376996  0.26383888  0.48908010    -0.23800
C1461       C  0.63937048  0.27784063  0.51893029    -0.00800
H1462       H  0.55787016  0.25482564  0.50099313     0.12900
H1463       H  0.61795894  0.24681513  0.45765949     0.13000
N1464       N  0.87451320  0.18159177  0.45749698    -0.03300
C1465       C  0.90933439  0.18872561  0.46174841    -0.00700
C1466       C  0.91661380  0.20591779  0.50432212    -0.23600
C1467       C  0.88527557  0.20975460  0.52707559    -0.23800
C1468       C  0.85967509  0.19575244  0.49722561    -0.00800
H1469       H  0.94117459  0.21877075  0.51516100     0.12900
H1470       H  0.88108659  0.22678056  0.55849441     0.13000
O1471       O  0.71059444  0.17024381  0.59264744    -0.80700
O1472       O  0.73578368  0.27663536  0.41318697    -0.65400
O1473       O  0.73890547  0.20102383  0.51070584    -1.12000
C1474       C  0.81541828  0.28233807  0.58838536     1.06100
O1475       O  0.78845071  0.30335098  0.42351044    -0.78600
O1476       O  0.81976002  0.24150792  0.46780113    -0.66200
Ni1477     Ni  0.69427695  0.18113273  0.53027587     1.34900
C1478       C  0.82557042  0.21551334  0.49843279     0.84900
O1479       O  0.71431491  0.20377839  0.42027666    -0.79200
O1480       O  0.67203131  0.18593917  0.46912871    -0.89500
C1481       C  0.75984306  0.29986459  0.40103650     0.84500
O1482       O  0.67928512  0.23208509  0.54835444    -0.67700
O1483       O  0.82701564  0.28765251  0.54702772    -0.86900
C1484       C  0.67347526  0.25808000  0.51772300     0.85300
C1485       C  0.68362910  0.19125327  0.42777127     1.06900
H1486       H  0.74522774  0.29397954  0.51468963     0.38700
O1487       O  0.76014018  0.27257063  0.50545116    -1.09600
O1488       O  0.80692577  0.21252387  0.53537734    -0.66300
Ni1489     Ni  0.76207404  0.23478624  0.55426734     1.26300
O1490       O  0.69211964  0.26106886  0.48077799    -0.66500
O1491       O  0.78473256  0.26981291  0.59588051    -0.78800
C1492       C  0.73920309  0.17372789  0.61511956     0.84700
O1493       O  0.76326301  0.19695610  0.60296810    -0.66000
Ni1494     Ni  0.80476931  0.29246049  0.48588097     1.27400
Ni1495     Ni  0.73697205  0.23880703  0.46188938     1.26100
H1496       H  0.75381739  0.17961573  0.50146726     0.39200
C1497       C  0.63699310  0.32733974  0.57996261     0.80400
N1498       N  0.66538176  0.32738478  0.60864497    -0.77900
C1499       C  0.67898257  0.36179710  0.29089605     0.82800
N1500       N  0.66538057  0.39620968  0.60864610    -0.77900
C1501       C  0.63699269  0.39625595  0.57996286     0.82900
N1502       N  0.62279824  0.36179822  0.56639402    -0.79600
C1503       C  0.75362013  0.32783398  0.36298493     0.80400
N1504       N  0.77124937  0.36179561  0.36693412    -0.77900
C1505       C  0.75361880  0.39575752  0.36298817     0.82800
N1506       N  0.72296473  0.39607712  0.33866315    -0.77900
C1507       C  0.70933418  0.36179704  0.32277193     0.82900
N1508       N  0.72296614  0.32751626  0.33866040    -0.79600
N1509       N  0.62453167  0.43159536  0.55865979    -0.03300
C1510       C  0.58971056  0.43872894  0.55440820    -0.00700
C1511       C  0.58243056  0.45592314  0.51183515    -0.23600
C1512       C  0.61376897  0.45976190  0.48908258    -0.23800
C1513       C  0.63936972  0.44575794  0.51893231    -0.00800
H1514       H  0.55786863  0.96877448  0.50099551     0.12900
H1515       H  0.61795736  0.97678775  0.45766334     0.13000
N1516       N  0.87451358  0.04199685  0.45750101    -0.03300
C1517       C  0.90933513  0.03486355  0.46175198    -0.00700
C1518       C  0.91661526  0.51766907  0.50432518    -0.23600
C1519       C  0.88527673  0.51383006  0.52707784    -0.23800
C1520       C  0.85967575  0.02783393  0.49722858    -0.00800
H1521       H  0.94117711  0.50481766  0.51516494     0.12900
H1522       H  0.88108811  0.49680363  0.55849658     0.13000
O1523       O  0.78845068  0.42023910  0.42351334    -0.80700
O1524       O  0.76326224  0.02663369  0.60297119    -0.65400
O1525       O  0.76013938  0.45102058  0.50545456    -1.12000
C1526       C  0.68362784  0.03233852  0.42777195     1.06100
O1527       O  0.71059528  0.05335182  0.59264698    -0.78600
O1528       O  0.67928560  0.49151005  0.54835743    -0.66200
Ni1529     Ni  0.80476863  0.43112839  0.48588488     1.34900
C1530       C  0.67347491  0.46551611  0.51772599     0.84900
O1531       O  0.78473086  0.45377586  0.59588336    -0.79200
O1532       O  0.82701469  0.43593542  0.54703187    -0.89500
C1533       C  0.73920307  0.04986443  0.61512099     0.84500
O1534       O  0.81976088  0.48208025  0.46780480    -0.67700
O1535       O  0.67203045  0.03765450  0.46912939    -0.86900
C1536       C  0.82557077  0.00807494  0.49843567     0.85300
C1537       C  0.81541736  0.44125145  0.58838922     1.06900
H1538       H  0.75381625  0.04397530  0.50146805     0.38700
O1539       O  0.73890510  0.02256878  0.51070691    -1.09600
O1540       O  0.69211985  0.46252536  0.48078185    -0.66300
Ni1541     Ni  0.73697155  0.48478459  0.46189196     1.26300
O1542       O  0.80692606  0.01106492  0.53538024    -0.66500
O1543       O  0.71431384  0.51981294  0.42027759    -0.78800
C1544       C  0.75984220  0.42372567  0.40104057     0.84700
O1545       O  0.73578256  0.44695516  0.41319198    -0.66000
Ni1546     Ni  0.69427653  0.04246178  0.53027635     1.27400
Ni1547     Ni  0.76207339  0.98880466  0.55426981     1.26100
H1548       H  0.74522588  0.42961132  0.51469424     0.39200
C1549       C  0.74542639  0.07783424  0.65317160     0.78800
N1550       N  0.77608011  0.07751531  0.67749709    -0.77900
C1551       C  0.78971056  0.11179546  0.69338753     0.82800
N1552       N  0.77607926  0.14607619  0.67749725    -0.77900
C1553       C  0.74542605  0.14575792  0.65317076     0.82900
N1554       N  0.72779650  0.11179639  0.64922240    -0.79600
C1555       C  0.86205131  0.07733612  0.43619847     0.80400
N1556       N  0.87624649  0.11179413  0.44976531    -0.77900
C1557       C  0.86205252  0.14625255  0.43619454     0.82800
N1558       N  0.83366406  0.14620707  0.40751203    -0.77900
C1559       C  0.82006181  0.11179476  0.39193058     0.82900
N1560       N  0.83366266  0.07738208  0.40751623    -0.79600
N1561       N  0.62451697  0.18159262  0.39199072    -0.03300
C1562       C  0.65933805  0.18872720  0.38773986    -0.00700
C1563       C  0.66661741  0.20592256  0.34516712    -0.23600
C1564       C  0.63527912  0.20975995  0.32241406    -0.23800
C1565       C  0.60967862  0.19575524  0.35226336    -0.00800
H1566       H  0.69117831  0.21877578  0.33432803     0.12900
H1567       H  0.63108999  0.22678569  0.29099486     0.13000
N1568       N  0.87453049  0.29199904  0.62416608    -0.03300
C1569       C  0.83970952  0.28486381  0.62841660    -0.00700
C1570       C  0.83242984  0.26766852  0.67098931    -0.23600
C1571       C  0.86376799  0.26383043  0.69374237    -0.23800
C1572       C  0.88936852  0.27783624  0.66389364    -0.00800
H1573       H  0.80786877  0.25481547  0.68182802     0.12900
H1574       H  0.86795687  0.24680327  0.72516056     0.13000
O1575       O  0.53844890  0.30334744  0.42598179    -0.80700
O1576       O  0.51326507  0.19695790  0.57985568    -0.65400
O1577       O  0.51014004  0.27257076  0.34403945    -1.12000
C1578       C  0.93362656  0.19125330  0.42171794     1.06100
O1579       O  0.96059689  0.17024403  0.59017694    -0.78600
O1580       O  0.92928711  0.23208573  0.63446744    -0.66200
Ni1581     Ni  0.55476865  0.29246026  0.36361062     1.34900
C1582       C  0.92347484  0.25807879  0.66509975     0.84900
O1583       O  0.53473420  0.26981523  0.58694421    -0.79200
O1584       O  0.57701618  0.28765526  0.63579687    -0.89500
C1585       C  0.48920555  0.17372946  0.56770444     0.84500
O1586       O  0.56976077  0.24150746  0.38168924    -0.67700
O1587       O  0.92203014  0.18593967  0.38036031    -0.86900
C1588       C  0.57557253  0.21551391  0.35105727     0.85300
C1589       C  0.56541951  0.28234109  0.59443919     1.06900
H1590       H  0.00381661  0.17961707  0.34802335     0.38700
O1591       O  0.98890580  0.20102398  0.33878495    -1.09600
O1592       O  0.94211886  0.26106815  0.70204433    -0.66300
Ni1593     Ni  0.98697064  0.23880707  0.38760089     1.26300
O1594       O  0.55692815  0.21252479  0.31411296    -0.66500
O1595       O  0.96431216  0.20377833  0.42921359    -0.78800
C1596       C  0.00983952  0.29986358  0.44845325     0.84700
O1597       O  0.98577976  0.27663569  0.43630184    -0.66000
Ni1598     Ni  0.94427764  0.18113319  0.65254742     1.27400
Ni1599     Ni  0.51207552  0.23478718  0.62855683     1.26100
H1600       H  0.49522718  0.29398037  0.66813327     0.39200
C1601       C  0.49542933  0.07783635  0.52965477     0.80400
N1602       N  0.97779961  0.11179856  0.53360303    -0.77900
C1603       C  0.49542939  0.14575989  0.52965390     0.82800
N1604       N  0.52608388  0.14607750  0.50532959    -0.77900
C1605       C  0.53971487  0.11179696  0.48943924     0.82900
N1606       N  0.52608327  0.07751678  0.50532899    -0.79600
C1607       C  0.61205598  0.14625360  0.41329398     0.80400
N1608       N  0.62624923  0.11179490  0.39972291    -0.77900
C1609       C  0.61205445  0.07733720  0.41329302     0.82800
N1610       N  0.58366782  0.07738389  0.44197928    -0.77900
C1611       C  0.57006667  0.11179664  0.45756309     0.82900
N1612       N  0.58366786  0.14620875  0.44197794    -0.79600
N1613       N  0.62451525  0.04199710  0.39199133    -0.03300
C1614       C  0.65933641  0.03486215  0.38774071    -0.00700
C1615       C  0.66661667  0.51766651  0.34516863    -0.23600
C1616       C  0.63527848  0.51382806  0.32241601    -0.23800
C1617       C  0.60967743  0.02783375  0.35226456    -0.00800
H1618       H  0.69117850  0.50481424  0.33432972     0.12900
H1619       H  0.63109022  0.49680145  0.29099786     0.13000
N1620       N  0.87453076  0.43159466  0.62416949    -0.03300
C1621       C  0.83970935  0.43872880  0.62842028    -0.00700
C1622       C  0.83242934  0.45592546  0.67099178    -0.23600
C1623       C  0.86376765  0.45976468  0.69374387    -0.23800
C1624       C  0.88936868  0.44575873  0.66389580    -0.00800
H1625       H  0.80786762  0.96877809  0.68183042     0.12900
H1626       H  0.86795602  0.97679212  0.72516134     0.13000
O1627       O  0.96059617  0.05335206  0.59017754    -0.80700
O1628       O  0.98578226  0.44695753  0.43630339    -0.65400
O1629       O  0.98890562  0.02257100  0.33878598    -1.12000
C1630       C  0.56541907  0.44125430  0.59443912     1.06100
O1631       O  0.53845003  0.42024078  0.42598086    -0.78600
O1632       O  0.56975976  0.48208279  0.38169085    -0.66200
Ni1633     Ni  0.94427694  0.04246302  0.65254909     1.34900
C1634       C  0.57557134  0.00807662  0.35105889     0.84900
O1635       O  0.96431357  0.51981539  0.42921467    -0.79200
O1636       O  0.92203028  0.03765638  0.38036318    -0.89500
C1637       C  0.00984150  0.42372721  0.44845396     0.84500
O1638       O  0.92928524  0.49151108  0.63447005    -0.67700
O1639       O  0.57701604  0.43593889  0.63579659    -0.86900
C1640       C  0.92347433  0.46551668  0.66510173     0.85300
C1641       C  0.93362735  0.03234044  0.42172057     1.06900
H1642       H  0.49523049  0.42961793  0.66813551     0.38700
O1643       O  0.51014063  0.45102359  0.34403989    -1.09600
O1644       O  0.55692663  0.01106749  0.31411480    -0.66300
Ni1645     Ni  0.51207507  0.98880802  0.62855771     1.26300
O1646       O  0.94211853  0.46252669  0.70204634    -0.66500
O1647       O  0.53473328  0.45377991  0.58694421    -0.78800
C1648       C  0.48920559  0.04986706  0.56770593     0.84700
O1649       O  0.51326550  0.02663816  0.57985772    -0.66000
Ni1650     Ni  0.55476919  0.43113126  0.36361012     1.27400
Ni1651     Ni  0.98697127  0.48478695  0.38760175     1.26100
H1652       H  0.00381849  0.04398001  0.34802559     0.39200
C1653       C  0.88699270  0.39625531  0.60286754     0.80400
N1654       N  0.91538081  0.39620955  0.57418376    -0.77900
C1655       C  0.92898060  0.36179703  0.55859680     0.82800
N1656       N  0.91537802  0.32738463  0.57417829    -0.77900
C1657       C  0.88699092  0.32733886  0.60286369     0.82900
N1658       N  0.87279739  0.36179718  0.61643543    -0.79600
C1659       C  0.00361726  0.39575689  0.48650443     0.80400
N1660       N  0.52124643  0.36179434  0.48255523    -0.77900
C1661       C  0.00361615  0.32783320  0.48650390     0.82800
N1662       N  0.97296256  0.32751531  0.51083019    -0.77900
C1663       C  0.95933144  0.36179619  0.52671955     0.82900
N1664       N  0.97296316  0.39607624  0.51082975    -0.79600
N1665       N  0.62453235  0.29200119  0.89199230    -0.03300
C1666       C  0.58971114  0.28486812  0.88774112    -0.00700
C1667       C  0.58243144  0.26767642  0.84516689    -0.23600
C1668       C  0.61376985  0.26383889  0.82241350    -0.23800
C1669       C  0.63937044  0.27784056  0.85226365    -0.00800
H1670       H  0.55787003  0.25482573  0.83432667     0.12900
H1671       H  0.61795875  0.24681518  0.79099285     0.13000
N1672       N  0.87451320  0.18159176  0.79083033    -0.03300
C1673       C  0.90933437  0.18872564  0.79508171    -0.00700
C1674       C  0.91661375  0.20591784  0.83765541    -0.23600
C1675       C  0.88527557  0.20975469  0.86040896    -0.23800
C1676       C  0.85967511  0.19575247  0.83055899    -0.00800
H1677       H  0.94117458  0.21877080  0.84849423     0.12900
H1678       H  0.88108664  0.22678065  0.89182775     0.13000
O1679       O  0.71059450  0.17024365  0.92598075    -0.80700
O1680       O  0.73578369  0.27663538  0.74652024    -0.65400
O1681       O  0.73890552  0.20102372  0.84403911    -1.12000
C1682       C  0.81541829  0.28233809  0.92171874     1.06100
O1683       O  0.78845073  0.30335098  0.75684379    -0.78600
O1684       O  0.81976004  0.24150790  0.80113444    -0.66200
Ni1685     Ni  0.69427697  0.18113258  0.86360919     1.34900
C1686       C  0.82557045  0.21551335  0.83176611     0.84900
O1687       O  0.71431484  0.20377839  0.75361005    -0.79200
O1688       O  0.67203123  0.18593912  0.80246210    -0.89500
C1689       C  0.75984310  0.29986460  0.73436978     0.84500
O1690       O  0.67928509  0.23208492  0.88168770    -0.67700
O1691       O  0.82701566  0.28765246  0.88036108    -0.86900
C1692       C  0.67347521  0.25807985  0.85105627     0.85300
C1693       C  0.68362902  0.19125326  0.76110467     1.06900
H1694       H  0.74522784  0.29397949  0.84802305     0.38700
O1695       O  0.76014019  0.27257060  0.83878449    -1.09600
O1696       O  0.80692579  0.21252390  0.86871067    -0.66300
Ni1697     Ni  0.76207406  0.23478620  0.88760063     1.26300
O1698       O  0.69211962  0.26106883  0.81411131    -0.66500
O1699       O  0.78473256  0.26981292  0.92921385    -0.78800
C1700       C  0.73920309  0.17372790  0.94845293     0.84700
O1701       O  0.76326301  0.19695611  0.93630143    -0.66000
Ni1702     Ni  0.80476932  0.29246044  0.81921432     1.27400
Ni1703     Ni  0.73697205  0.23880700  0.79522269     1.26100
H1704       H  0.75381752  0.17961553  0.83480045     0.39200
C1705       C  0.63699310  0.32733973  0.91329593     0.80400
N1706       N  0.66538162  0.32738475  0.94197854    -0.77900
C1707       C  0.67898261  0.36179708  0.62422933     0.82800
N1708       N  0.66538061  0.39620965  0.94197942    -0.77900
C1709       C  0.63699269  0.39625597  0.91329626     0.82900
N1710       N  0.62279829  0.36179824  0.89972727    -0.79600
C1711       C  0.75362019  0.32783397  0.69631816     0.80400
N1712       N  0.77124940  0.36179563  0.70026735    -0.77900
C1713       C  0.75361877  0.39575752  0.69632149     0.82800
N1714       N  0.72296468  0.39607707  0.67199654    -0.77900
C1715       C  0.70933421  0.36179700  0.65610520     0.82900
N1716       N  0.72296620  0.32751622  0.67199362    -0.79600
N1717       N  0.62453170  0.43159543  0.89199327    -0.03300
C1718       C  0.58971057  0.43872896  0.88774159    -0.00700
C1719       C  0.58243053  0.45592299  0.84516843    -0.23600
C1720       C  0.61376898  0.45976183  0.82241596    -0.23800
C1721       C  0.63936973  0.44575797  0.85226575    -0.00800
H1722       H  0.55786872  0.96877447  0.83432885     0.12900
H1723       H  0.61795743  0.97678752  0.79099659     0.13000
N1724       N  0.87451359  0.04199680  0.79083430    -0.03300
C1725       C  0.90933513  0.03486349  0.79508532    -0.00700
C1726       C  0.91661525  0.51766917  0.83765855    -0.23600
C1727       C  0.88527672  0.51383019  0.86041117    -0.23800
C1728       C  0.85967576  0.02783395  0.83056193    -0.00800
H1729       H  0.94117709  0.50481772  0.84849838     0.12900
H1730       H  0.88108812  0.49680374  0.89182994     0.13000
O1731       O  0.78845064  0.42023914  0.75684666    -0.80700
O1732       O  0.76326222  0.02663370  0.93630455    -0.65400
O1733       O  0.76013940  0.45102067  0.83878792    -1.12000
C1734       C  0.68362777  0.03233857  0.76110527     1.06100
O1735       O  0.71059527  0.05335185  0.92598027    -0.78600
O1736       O  0.67928564  0.49151010  0.88169065    -0.66200
Ni1737     Ni  0.80476861  0.43112844  0.81921821     1.34900
C1738       C  0.67347492  0.46551610  0.85105929     0.84900
O1739       O  0.78473087  0.45377591  0.92921673    -0.79200
O1740       O  0.82701469  0.43593545  0.88036522    -0.89500
C1741       C  0.73920304  0.04986442  0.94845435     0.84500
O1742       O  0.81976077  0.48208034  0.80113818    -0.67700
O1743       O  0.67203033  0.03765450  0.80246268    -0.86900
C1744       C  0.82557078  0.00807496  0.83176908     0.85300
C1745       C  0.81541736  0.44125149  0.92172256     1.06900
H1746       H  0.75381633  0.04397552  0.83480129     0.38700
O1747       O  0.73890507  0.02256890  0.84404020    -1.09600
O1748       O  0.69211983  0.46252527  0.81411515    -0.66300
Ni1749     Ni  0.73697152  0.48478461  0.79522527     1.26300
O1750       O  0.80692602  0.01106497  0.86871362    -0.66500
O1751       O  0.71431382  0.51981294  0.75361089    -0.78800
C1752       C  0.75984216  0.42372569  0.73437389     0.84700
O1753       O  0.73578250  0.44695514  0.74652531    -0.66000
Ni1754     Ni  0.69427645  0.04246183  0.86360964     1.27400
Ni1755     Ni  0.76207335  0.98880472  0.88760315     1.26100
H1756       H  0.74522599  0.42961153  0.84802768     0.39200
C1757       C  0.74542639  0.07783426  0.98650495     0.78800
N1758       N  0.77608008  0.07751532  0.01083053    -0.77900
C1759       C  0.78971061  0.11179549  0.02672079     0.82800
N1760       N  0.77607930  0.14607621  0.01083057    -0.77900
C1761       C  0.74542606  0.14575797  0.98650416     0.82900
N1762       N  0.72779655  0.11179642  0.98255568    -0.79600
C1763       C  0.86205135  0.07733608  0.76953172     0.80400
N1764       N  0.87624654  0.11179410  0.78309855    -0.77900
C1765       C  0.86205252  0.14625253  0.76952787     0.82800
N1766       N  0.83366402  0.14620704  0.74084544    -0.77900
C1767       C  0.82006184  0.11179474  0.72526385     0.82900
N1768       N  0.83366271  0.07738205  0.74084946    -0.79600
N1769       N  0.62451691  0.18159263  0.72532401    -0.03300
C1770       C  0.65933800  0.18872710  0.72107318    -0.00700
C1771       C  0.66661743  0.20592237  0.67850043    -0.23600
C1772       C  0.63527912  0.20975989  0.65574743    -0.23800
C1773       C  0.60967859  0.19575524  0.68559666    -0.00800
H1774       H  0.69117835  0.21877555  0.66766139     0.12900
H1775       H  0.63109002  0.22678576  0.62432828     0.13000
N1776       N  0.87453050  0.29199902  0.95749937    -0.03300
C1777       C  0.83970953  0.28486388  0.96174996    -0.00700
C1778       C  0.83242987  0.26766868  0.00432273    -0.23600
C1779       C  0.86376803  0.26383058  0.02707571    -0.23800
C1780       C  0.88936854  0.27783623  0.99722692    -0.00800
H1781       H  0.80786883  0.25481561  0.01516148     0.12900
H1782       H  0.86795693  0.24680343  0.05849393     0.13000
O1783       O  0.53844891  0.30334738  0.75931509    -0.80700
O1784       O  0.51326502  0.19695797  0.91318894    -0.65400
O1785       O  0.51014000  0.27257075  0.67737270    -1.12000
C1786       C  0.93362655  0.19125329  0.75505125     1.06100
O1787       O  0.96059686  0.17024406  0.92351026    -0.78600
O1788       O  0.92928713  0.23208571  0.96780076    -0.66200
Ni1789     Ni  0.55476860  0.29246021  0.69694391     1.34900
C1790       C  0.92347484  0.25807873  0.99843308     0.84900
O1791       O  0.53473417  0.26981527  0.92027753    -0.79200
O1792       O  0.57701615  0.28765530  0.96913021    -0.89500
C1793       C  0.48920553  0.17372947  0.90103775     0.84500
O1794       O  0.56976074  0.24150741  0.71502253    -0.67700
O1795       O  0.92203016  0.18593955  0.71369365    -0.86900
C1796       C  0.57557249  0.21551389  0.68439055     0.85300
C1797       C  0.56541949  0.28234109  0.92777257     1.06900
H1798       H  0.00381661  0.17961717  0.68135656     0.38700
O1799       O  0.98890580  0.20102401  0.67211820    -1.09600
O1800       O  0.94211882  0.26106805  0.03537772    -0.66300
Ni1801     Ni  0.98697064  0.23880706  0.72093415     1.26300
O1802       O  0.55692815  0.21252480  0.64744622    -0.66500
O1803       O  0.96431215  0.20377836  0.76254684    -0.78800
C1804       C  0.00983949  0.29986356  0.78178652     0.84700
O1805       O  0.98577978  0.27663562  0.76963512    -0.66000
Ni1806     Ni  0.94427764  0.18113320  0.98588076     1.27400
Ni1807     Ni  0.51207549  0.23478722  0.96189010     1.26100
H1808       H  0.49522725  0.29398034  0.00146680     0.39200
C1809       C  0.49542940  0.07783636  0.86298819     0.80400
N1810       N  0.97779963  0.11179855  0.86693648    -0.77900
C1811       C  0.49542940  0.14575989  0.86298730     0.82800
N1812       N  0.52608390  0.14607751  0.83866300    -0.77900
C1813       C  0.53971485  0.11179699  0.82277258     0.82900
N1814       N  0.52608334  0.07751681  0.83866244    -0.79600
C1815       C  0.61205587  0.14625362  0.74662717     0.80400
N1816       N  0.62624917  0.11179494  0.73305616    -0.77900
C1817       C  0.61205440  0.07733725  0.74662629     0.82800
N1818       N  0.58366776  0.07738394  0.77531253    -0.77900
C1819       C  0.57006657  0.11179668  0.79089629     0.82900
N1820       N  0.58366777  0.14620878  0.77531118    -0.79600
N1821       N  0.62451522  0.04199715  0.72532464    -0.03300
C1822       C  0.65933637  0.03486220  0.72107403    -0.00700
C1823       C  0.66661671  0.51766647  0.67850198    -0.23600
C1824       C  0.63527852  0.51382811  0.65574933    -0.23800
C1825       C  0.60967740  0.02783378  0.68559788    -0.00800
H1826       H  0.69117855  0.50481424  0.66766307     0.12900
H1827       H  0.63109025  0.49680158  0.62433113     0.13000
N1828       N  0.87453074  0.43159468  0.95750287    -0.03300
C1829       C  0.83970934  0.43872884  0.96175361    -0.00700
C1830       C  0.83242934  0.45592553  0.00432506    -0.23600
C1831       C  0.86376759  0.45976465  0.02707722    -0.23800
C1832       C  0.88936865  0.44575877  0.99722915    -0.00800
H1833       H  0.80786765  0.96877827  0.01516368     0.12900
H1834       H  0.86795597  0.97679199  0.05849475     0.13000
O1835       O  0.96059618  0.05335203  0.92351080    -0.80700
O1836       O  0.98578225  0.44695742  0.76963660    -0.65400
O1837       O  0.98890567  0.02257099  0.67211928    -1.12000
C1838       C  0.56541904  0.44125435  0.92777248     1.06100
O1839       O  0.53845007  0.42024078  0.75931422    -0.78600
O1840       O  0.56975975  0.48208287  0.71502424    -0.66200
Ni1841     Ni  0.94427696  0.04246308  0.98588235     1.34900
C1842       C  0.57557131  0.00807667  0.68439223     0.84900
O1843       O  0.96431354  0.51981537  0.76254801    -0.79200
O1844       O  0.92203029  0.03765620  0.71369654    -0.89500
C1845       C  0.00984151  0.42372715  0.78178724     0.84500
O1846       O  0.92928524  0.49151109  0.96780332    -0.67700
O1847       O  0.57701596  0.43593894  0.96912994    -0.86900
C1848       C  0.92347428  0.46551676  0.99843504     0.85300
C1849       C  0.93362737  0.03234033  0.75505393     1.06900
H1850       H  0.49523034  0.42961781  0.00146873     0.38700
O1851       O  0.51014069  0.45102364  0.67737324    -1.09600
O1852       O  0.55692663  0.01106747  0.64744809    -0.66300
Ni1853     Ni  0.51207509  0.98880805  0.96189107     1.26300
O1854       O  0.94211847  0.46252682  0.03537969    -0.66500
O1855       O  0.53473327  0.45378000  0.92027752    -0.78800
C1856       C  0.48920562  0.04986705  0.90103926     0.84700
O1857       O  0.51326553  0.02663817  0.91319110    -0.66000
Ni1858     Ni  0.55476924  0.43113131  0.69694350     1.27400
Ni1859     Ni  0.98697129  0.48478695  0.72093506     1.26100
H1860       H  0.00381854  0.04398001  0.68135885     0.39200
C1861       C  0.88699269  0.39625531  0.93620098     0.80400
N1862       N  0.91538067  0.39620958  0.90751696    -0.77900
C1863       C  0.92898055  0.36179707  0.89193010     0.82800
N1864       N  0.91537805  0.32738467  0.90751171    -0.77900
C1865       C  0.88699089  0.32733886  0.93619701     0.82900
N1866       N  0.87279742  0.36179718  0.94976893    -0.79600
C1867       C  0.00361729  0.39575690  0.81983778     0.80400
N1868       N  0.52124644  0.36179434  0.81588853    -0.77900
C1869       C  0.00361607  0.32783323  0.81983710     0.82800
N1870       N  0.97296249  0.32751535  0.84416342    -0.77900
C1871       C  0.95933140  0.36179624  0.86005282     0.82900
N1872       N  0.97296317  0.39607627  0.84416305    -0.79600
N1873       N  0.62453235  0.79200120  0.22532557    -0.03300
C1874       C  0.58971114  0.78486810  0.22107437    -0.00700
C1875       C  0.58243151  0.76767638  0.17850010    -0.23600
C1876       C  0.61376994  0.76383885  0.15574678    -0.23800
C1877       C  0.63937048  0.77784060  0.18559695    -0.00800
H1878       H  0.55787011  0.75482567  0.16765981     0.12900
H1879       H  0.61795893  0.74681515  0.12432613     0.13000
N1880       N  0.87451320  0.68159173  0.12416374    -0.03300
C1881       C  0.90933439  0.68872560  0.12841512    -0.00700
C1882       C  0.91661381  0.70591784  0.17098879    -0.23600
C1883       C  0.88527560  0.70975461  0.19374230    -0.23800
C1884       C  0.85967510  0.69575244  0.16389235    -0.00800
H1885       H  0.94117460  0.71877083  0.18182761     0.12900
H1886       H  0.88108665  0.72678058  0.22516113     0.13000
O1887       O  0.71059441  0.67024387  0.25931420    -0.80700
O1888       O  0.73578368  0.77663540  0.07985368    -0.65400
O1889       O  0.73890544  0.70102387  0.17737259    -1.12000
C1890       C  0.81541828  0.78233808  0.25505204     1.06100
O1891       O  0.78845074  0.80335096  0.09017705    -0.78600
O1892       O  0.81976004  0.74150795  0.13446784    -0.66200
Ni1893     Ni  0.69427694  0.68113273  0.19694259     1.34900
C1894       C  0.82557043  0.71551336  0.16509949     0.84900
O1895       O  0.71431492  0.70377841  0.08694339    -0.79200
O1896       O  0.67203131  0.68593914  0.13579541    -0.89500
C1897       C  0.75984308  0.79986458  0.06770312     0.84500
O1898       O  0.67928510  0.73208507  0.21502110    -0.67700
O1899       O  0.82701562  0.78765252  0.21369439    -0.86900
C1900       C  0.67347526  0.75808000  0.18438967     0.85300
C1901       C  0.68362910  0.69125329  0.09443797     1.06900
H1902       H  0.74522773  0.79397956  0.18135641     0.38700
O1903       O  0.76014016  0.77257066  0.17211790    -1.09600
O1904       O  0.80692574  0.71252385  0.20204401    -0.66300
Ni1905     Ni  0.76207404  0.73478625  0.22093406     1.26300
O1906       O  0.69211965  0.76106890  0.14744469    -0.66500
O1907       O  0.78473258  0.76981290  0.26254722    -0.78800
C1908       C  0.73920309  0.67372792  0.28178627     0.84700
O1909       O  0.76326304  0.69695606  0.26963475    -0.66000
Ni1910     Ni  0.80476929  0.79246050  0.15254764     1.27400
Ni1911     Ni  0.73697205  0.73880706  0.12855612     1.26100
H1912       H  0.75381734  0.67961579  0.16813406     0.39200
C1913       C  0.63699312  0.82733971  0.24662925     0.80400
N1914       N  0.66538173  0.82738476  0.27531170    -0.77900
C1915       C  0.67898257  0.86179703  0.95756277     0.82800
N1916       N  0.66538062  0.89620965  0.27531268    -0.77900
C1917       C  0.63699267  0.89625594  0.24662957     0.82900
N1918       N  0.62279821  0.86179820  0.23306073    -0.79600
C1919       C  0.75362017  0.82783395  0.02965151     0.80400
N1920       N  0.77124940  0.86179560  0.03360065    -0.77900
C1921       C  0.75361878  0.89575749  0.02965487     0.82800
N1922       N  0.72296470  0.89607708  0.00532986    -0.77900
C1923       C  0.70933422  0.86179700  0.98943854     0.82900
N1924       N  0.72296614  0.82751622  0.00532706    -0.79600
N1925       N  0.62453166  0.93159536  0.22532653    -0.03300
C1926       C  0.58971055  0.93872895  0.22107492    -0.00700
C1927       C  0.58243055  0.95592316  0.17850187    -0.23600
C1928       C  0.61376896  0.95976193  0.15574927    -0.23800
C1929       C  0.63936972  0.94575795  0.18559903    -0.00800
H1930       H  0.55786865  0.46877464  0.16766240     0.12900
H1931       H  0.61795734  0.47678765  0.12432998     0.13000
N1932       N  0.87451357  0.54199678  0.12416761    -0.03300
C1933       C  0.90933511  0.53486352  0.12841864    -0.00700
C1934       C  0.91661523  0.01766902  0.17099184    -0.23600
C1935       C  0.88527669  0.01383005  0.19374440    -0.23800
C1936       C  0.85967575  0.52783393  0.16389522    -0.00800
H1937       H  0.94117704  0.00481754  0.18183172     0.12900
H1938       H  0.88108803  0.99680358  0.22516317     0.13000
O1939       O  0.78845066  0.92023908  0.09018010    -0.80700
O1940       O  0.76326222  0.52663364  0.26963791    -0.65400
O1941       O  0.76013941  0.95102063  0.17212124    -1.12000
C1942       C  0.68362785  0.53233851  0.09443860     1.06100
O1943       O  0.71059529  0.55335181  0.25931361    -0.78600
O1944       O  0.67928562  0.99151009  0.21502408    -0.66200
Ni1945     Ni  0.80476862  0.93112838  0.15255162     1.34900
C1946       C  0.67347491  0.96551613  0.18439268     0.84900
O1947       O  0.78473084  0.95377586  0.26255004    -0.79200
O1948       O  0.82701469  0.93593542  0.21369858    -0.89500
C1949       C  0.73920307  0.54986441  0.28178767     0.84500
O1950       O  0.81976085  0.98208021  0.13447152    -0.67700
O1951       O  0.67203043  0.53765450  0.13579603    -0.86900
C1952       C  0.82557080  0.50807492  0.16510240     0.85300
C1953       C  0.81541735  0.94125145  0.25505590     1.06900
H1954       H  0.75381635  0.54397530  0.16813458     0.38700
O1955       O  0.73890515  0.52256878  0.17737352    -1.09600
O1956       O  0.69211985  0.96252538  0.14744853    -0.66300
Ni1957     Ni  0.73697157  0.98478460  0.12855860     1.26300
O1958       O  0.80692607  0.51106489  0.20204695    -0.66500
O1959       O  0.71431387  0.01981297  0.08694424    -0.78800
C1960       C  0.75984218  0.92372563  0.06770731     0.84700
O1961       O  0.73578255  0.94695514  0.07985866    -0.66000
Ni1962     Ni  0.69427656  0.54246177  0.19694298     1.27400
Ni1963     Ni  0.76207337  0.48880462  0.22093649     1.26100
H1964       H  0.74522596  0.92961150  0.18136090     0.39200
C1965       C  0.74542641  0.57783427  0.31983822     0.78800
N1966       N  0.77608008  0.57751532  0.34416382    -0.77900
C1967       C  0.78971052  0.61179545  0.36005429     0.82800
N1968       N  0.77607923  0.64607620  0.34416402    -0.77900
C1969       C  0.74542605  0.64575795  0.31983746     0.82900
N1970       N  0.72779654  0.61179642  0.31588893    -0.79600
C1971       C  0.86205130  0.57733608  0.10286509     0.80400
N1972       N  0.87624653  0.61179408  0.11643191    -0.77900
C1973       C  0.86205251  0.64625252  0.10286127     0.82800
N1974       N  0.83366403  0.64620707  0.07417881    -0.77900
C1975       C  0.82006182  0.61179478  0.05859723     0.82900
N1976       N  0.83366269  0.57738208  0.07418280    -0.79600
N1977       N  0.62451695  0.68159265  0.05865741    -0.03300
C1978       C  0.65933804  0.68872722  0.05440655    -0.00700
C1979       C  0.66661738  0.70592255  0.01183379    -0.23600
C1980       C  0.63527908  0.70975983  0.98908073    -0.23800
C1981       C  0.60967858  0.69575521  0.01893003    -0.00800
H1982       H  0.69117825  0.71877582  0.00099470     0.12900
H1983       H  0.63108990  0.72678554  0.95766149     0.13000
N1984       N  0.87453049  0.79199906  0.29083272    -0.03300
C1985       C  0.83970952  0.78486383  0.29508325    -0.00700
C1986       C  0.83242983  0.76766851  0.33765594    -0.23600
C1987       C  0.86376797  0.76383046  0.36040901    -0.23800
C1988       C  0.88936851  0.77783625  0.33056030    -0.00800
H1989       H  0.80786878  0.75481543  0.34849462     0.12900
H1990       H  0.86795684  0.74680332  0.39182722     0.13000
O1991       O  0.53844894  0.80334740  0.09264839    -0.80700
O1992       O  0.51326509  0.69695792  0.24652246    -0.65400
O1993       O  0.51013999  0.77257081  0.01070603    -1.12000
C1994       C  0.93362657  0.69125330  0.08838465     1.06100
O1995       O  0.96059688  0.67024405  0.25684362    -0.78600
O1996       O  0.92928714  0.73208578  0.30113406    -0.66200
Ni1997     Ni  0.55476861  0.79246030  0.03027722     1.34900
C1998       C  0.92347484  0.75807880  0.33176641     0.84900
O1999       O  0.53473418  0.76981523  0.25361088    -0.79200
O2000       O  0.57701615  0.78765525  0.30246354    -0.89500
C2001       C  0.48920559  0.67372946  0.23437119     0.84500
O2002       O  0.56976075  0.74150748  0.04835576    -0.67700
O2003       O  0.92203016  0.68593968  0.04702703    -0.86900
C2004       C  0.57557249  0.71551390  0.01772383     0.85300
C2005       C  0.56541950  0.78234106  0.26110587     1.06900
H2006       H  0.00381660  0.67961716  0.01468974     0.38700
O2007       O  0.98890579  0.70102404  0.00545148    -1.09600
O2008       O  0.94211884  0.76106812  0.36871103    -0.66300
Ni2009     Ni  0.98697065  0.73880708  0.05426747     1.26300
O2010       O  0.55692812  0.71252478  0.98077950    -0.66500
O2011       O  0.96431218  0.70377835  0.09588026    -0.78800
C2012       C  0.00983952  0.79986359  0.11511977     0.84700
O2013       O  0.98577977  0.77663571  0.10296833    -0.66000
Ni2014     Ni  0.94427763  0.68113322  0.31921406     1.27400
Ni2015     Ni  0.51207552  0.73478718  0.29522357     1.26100
H2016       H  0.49522718  0.79398038  0.33480004     0.39200
C2017       C  0.49542936  0.57783636  0.19632149     0.80400
N2018       N  0.97779963  0.61179856  0.20026980    -0.77900
C2019       C  0.49542947  0.64575989  0.19632071     0.82800
N2020       N  0.52608395  0.64607750  0.17199636    -0.77900
C2021       C  0.53971490  0.61179696  0.15610595     0.82900
N2022       N  0.52608330  0.57751678  0.17199572    -0.79600
C2023       C  0.61205596  0.64625361  0.07996059     0.80400
N2024       N  0.62624928  0.61179492  0.06638957    -0.77900
C2025       C  0.61205444  0.57733722  0.07995956     0.82800
N2026       N  0.58366777  0.57738390  0.10864576    -0.77900
C2027       C  0.57006661  0.61179664  0.12422961     0.82900
N2028       N  0.58366780  0.64620873  0.10864445    -0.79600
N2029       N  0.62451528  0.54199713  0.05865794    -0.03300
C2030       C  0.65933644  0.53486217  0.05440734    -0.00700
C2031       C  0.66661669  0.01766641  0.01183529    -0.23600
C2032       C  0.63527851  0.01382811  0.98908265    -0.23800
C2033       C  0.60967745  0.52783376  0.01893121    -0.00800
H2034       H  0.69117846  0.00481401  0.00099640     0.12900
H2035       H  0.63109020  0.99680148  0.95766450     0.13000
N2036       N  0.87453076  0.93159468  0.29083612    -0.03300
C2037       C  0.83970934  0.93872880  0.29508692    -0.00700
C2038       C  0.83242933  0.95592547  0.33765838    -0.23600
C2039       C  0.86376762  0.95976464  0.36041042    -0.23800
C2040       C  0.88936867  0.94575875  0.33056240    -0.00800
H2041       H  0.80786768  0.46877831  0.34849698     0.12900
H2042       H  0.86795604  0.47679198  0.39182798     0.13000
O2043       O  0.96059616  0.55335205  0.25684417    -0.80700
O2044       O  0.98578224  0.94695746  0.10297000    -0.65400
O2045       O  0.98890566  0.52257107  0.00545265    -1.12000
C2046       C  0.56541906  0.94125431  0.26110581     1.06100
O2047       O  0.53845005  0.92024078  0.09264752    -0.78600
O2048       O  0.56975981  0.98208280  0.04835760    -0.66200
Ni2049     Ni  0.94427691  0.54246300  0.31921570     1.34900
C2050       C  0.57557136  0.50807665  0.01772560     0.84900
O2051       O  0.96431356  0.01981531  0.09588138    -0.79200
O2052       O  0.92203028  0.53765628  0.04702984    -0.89500
C2053       C  0.00984152  0.92372719  0.11512062     0.84500
O2054       O  0.92928526  0.99151103  0.30113666    -0.67700
O2055       O  0.57701604  0.93593889  0.30246324    -0.86900
C2056       C  0.92347432  0.96551669  0.33176837     0.85300
C2057       C  0.93362735  0.53234042  0.08838724     1.06900
H2058       H  0.49523043  0.92961789  0.33480202     0.38700
O2059       O  0.51014066  0.95102363  0.01070654    -1.09600
O2060       O  0.55692662  0.51106753  0.98078155    -0.66300
Ni2061     Ni  0.51207506  0.48880804  0.29522443     1.26300
O2062       O  0.94211849  0.96252673  0.36871303    -0.66500
O2063       O  0.53473327  0.95377993  0.25361091    -0.78800
C2064       C  0.48920558  0.54986705  0.23437261     0.84700
O2065       O  0.51326549  0.52663816  0.24652445    -0.66000
Ni2066     Ni  0.55476919  0.93113129  0.03027681     1.27400
Ni2067     Ni  0.98697126  0.98478691  0.05426839     1.26100
H2068       H  0.00381855  0.54398010  0.01469237     0.39200
C2069       C  0.88699274  0.89625532  0.26953424     0.80400
N2070       N  0.91538083  0.89620955  0.24085043    -0.77900
C2071       C  0.92898058  0.86179703  0.22526338     0.82800
N2072       N  0.91537803  0.82738464  0.24084494    -0.77900
C2073       C  0.88699090  0.82733887  0.26953033     0.82900
N2074       N  0.87279741  0.86179719  0.28310213    -0.79600
C2075       C  0.00361730  0.89575690  0.15317108     0.80400
N2076       N  0.52124642  0.86179434  0.14922175    -0.77900
C2077       C  0.00361612  0.82783321  0.15317037     0.82800
N2078       N  0.97296252  0.82751532  0.17749665    -0.77900
C2079       C  0.95933139  0.86179619  0.19338603     0.82900
N2080       N  0.97296315  0.89607623  0.17749629    -0.79600
N2081       N  0.62453233  0.79200119  0.55865892    -0.03300
C2082       C  0.58971112  0.78486812  0.55440772    -0.00700
C2083       C  0.58243146  0.76767646  0.51183343    -0.23600
C2084       C  0.61376987  0.76383893  0.48908005    -0.23800
C2085       C  0.63937043  0.77784056  0.51893028    -0.00800
H2086       H  0.55787007  0.75482572  0.50099315     0.12900
H2087       H  0.61795879  0.74681522  0.45765940     0.13000
N2088       N  0.87451317  0.68159180  0.45749696    -0.03300
C2089       C  0.90933436  0.68872561  0.46174838    -0.00700
C2090       C  0.91661378  0.70591767  0.50432213    -0.23600
C2091       C  0.88527558  0.70975459  0.52707559    -0.23800
C2092       C  0.85967510  0.69575247  0.49722561    -0.00800
H2093       H  0.94117461  0.71877057  0.51516099     0.12900
H2094       H  0.88108665  0.72678063  0.55849437     0.13000
O2095       O  0.71059450  0.67024365  0.59264737    -0.80700
O2096       O  0.73578369  0.77663540  0.41318700    -0.65400
O2097       O  0.73890553  0.70102372  0.51070580    -1.12000
C2098       C  0.81541828  0.78233806  0.58838536     1.06100
O2099       O  0.78845074  0.80335099  0.42351047    -0.78600
O2100       O  0.81976002  0.74150788  0.46780108    -0.66200
Ni2101     Ni  0.69427700  0.68113259  0.53027582     1.34900
C2102       C  0.82557044  0.71551335  0.49843279     0.84900
O2103       O  0.71431489  0.70377843  0.42027663    -0.79200
O2104       O  0.67203132  0.68593913  0.46912870    -0.89500
C2105       C  0.75984308  0.79986462  0.40103652     0.84500
O2106       O  0.67928507  0.73208490  0.54835439    -0.67700
O2107       O  0.82701569  0.78765232  0.54702771    -0.86900
C2108       C  0.67347521  0.75807985  0.51772297     0.85300
C2109       C  0.68362908  0.69125326  0.42777127     1.06900
H2110       H  0.74522789  0.79397946  0.51468955     0.38700
O2111       O  0.76014022  0.77257058  0.50545113    -1.09600
O2112       O  0.80692580  0.71252391  0.53537736    -0.66300
Ni2113     Ni  0.76207405  0.73478622  0.55426732     1.26300
O2114       O  0.69211964  0.76106884  0.48077804    -0.66500
O2115       O  0.78473254  0.76981297  0.59588050    -0.78800
C2116       C  0.73920310  0.67372788  0.61511956     0.84700
O2117       O  0.76326299  0.69695614  0.60296813    -0.66000
Ni2118     Ni  0.80476935  0.79246040  0.48588097     1.27400
Ni2119     Ni  0.73697207  0.73880700  0.46188937     1.26100
H2120       H  0.75381755  0.67961553  0.50146719     0.39200
C2121       C  0.63699311  0.82733971  0.57996260     0.80400
N2122       N  0.66538178  0.82738477  0.60864497    -0.77900
C2123       C  0.67898259  0.86179707  0.29089604     0.82800
N2124       N  0.66538059  0.89620967  0.60864610    -0.77900
C2125       C  0.63699271  0.89625595  0.57996286     0.82900
N2126       N  0.62279826  0.86179821  0.56639401    -0.79600
C2127       C  0.75362017  0.82783398  0.36298493     0.80400
N2128       N  0.77124938  0.86179563  0.36693412    -0.77900
C2129       C  0.75361878  0.89575753  0.36298818     0.82800
N2130       N  0.72296473  0.89607709  0.33866313    -0.77900
C2131       C  0.70933420  0.86179701  0.32277192     0.82900
N2132       N  0.72296617  0.82751623  0.33866040    -0.79600
N2133       N  0.62453169  0.93159538  0.55865984    -0.03300
C2134       C  0.58971055  0.93872890  0.55440820    -0.00700
C2135       C  0.58243051  0.95592303  0.51183509    -0.23600
C2136       C  0.61376895  0.95976190  0.48908261    -0.23800
C2137       C  0.63936971  0.94575798  0.51893237    -0.00800
H2138       H  0.55786871  0.46877473  0.50099564     0.12900
H2139       H  0.61795738  0.47678773  0.45766331     0.13000
N2140       N  0.87451361  0.54199684  0.45750099    -0.03300
C2141       C  0.90933515  0.53486353  0.46175197    -0.00700
C2142       C  0.91661524  0.01766903  0.50432516    -0.23600
C2143       C  0.88527670  0.01383002  0.52707780    -0.23800
C2144       C  0.85967577  0.52783396  0.49722860    -0.00800
H2145       H  0.94117709  0.00481762  0.51516493     0.12900
H2146       H  0.88108808  0.99680359  0.55849657     0.13000
O2147       O  0.78845060  0.92023911  0.42351339    -0.80700
O2148       O  0.76326223  0.52663368  0.60297120    -0.65400
O2149       O  0.76013940  0.95102065  0.50545455    -1.12000
C2150       C  0.68362779  0.53233856  0.42777196     1.06100
O2151       O  0.71059525  0.55335182  0.59264696    -0.78600
O2152       O  0.67928563  0.99151008  0.54835739    -0.66200
Ni2153     Ni  0.80476861  0.93112844  0.48588488     1.34900
C2154       C  0.67347491  0.96551610  0.51772600     0.84900
O2155       O  0.78473087  0.95377590  0.59588336    -0.79200
O2156       O  0.82701471  0.93593549  0.54703186    -0.89500
C2157       C  0.73920305  0.54986443  0.61512100     0.84500
O2158       O  0.81976073  0.98208033  0.46780475    -0.67700
O2159       O  0.67203034  0.53765451  0.46912938    -0.86900
C2160       C  0.82557082  0.50807492  0.49843568     0.85300
C2161       C  0.81541737  0.94125149  0.58838921     1.06900
H2162       H  0.75381623  0.54397534  0.50146811     0.38700
O2163       O  0.73890507  0.52256880  0.51070692    -1.09600
O2164       O  0.69211985  0.96252526  0.48078188    -0.66300
Ni2165     Ni  0.73697152  0.98478458  0.46189194     1.26300
O2166       O  0.80692606  0.51106492  0.53538020    -0.66500
O2167       O  0.71431384  0.01981287  0.42027754    -0.78800
C2168       C  0.75984214  0.92372569  0.40104057     0.84700
O2169       O  0.73578251  0.94695519  0.41319193    -0.66000
Ni2170     Ni  0.69427644  0.54246177  0.53027636     1.27400
Ni2171     Ni  0.76207338  0.48880463  0.55426981     1.26100
H2172       H  0.74522599  0.92961150  0.51469424     0.39200
C2173       C  0.74542636  0.57783427  0.65317161     0.78800
N2174       N  0.77608005  0.57751534  0.67749718    -0.77900
C2175       C  0.78971055  0.61179549  0.69338754     0.82800
N2176       N  0.77607927  0.64607622  0.67749724    -0.77900
C2177       C  0.74542606  0.64575796  0.65317077     0.82900
N2178       N  0.72779651  0.61179643  0.64922237    -0.79600
C2179       C  0.86205134  0.57733611  0.43619847     0.80400
N2180       N  0.87624651  0.61179414  0.44976532    -0.77900
C2181       C  0.86205251  0.64625255  0.43619454     0.82800
N2182       N  0.83366407  0.64620704  0.40751201    -0.77900
C2183       C  0.82006183  0.61179474  0.39193057     0.82900
N2184       N  0.83366268  0.57738206  0.40751624    -0.79600
N2185       N  0.62451694  0.68159261  0.39199074    -0.03300
C2186       C  0.65933803  0.68872708  0.38773986    -0.00700
C2187       C  0.66661743  0.70592240  0.34516711    -0.23600
C2188       C  0.63527912  0.70975988  0.32241409    -0.23800
C2189       C  0.60967860  0.69575519  0.35226335    -0.00800
H2190       H  0.69117834  0.71877560  0.33432809     0.12900
H2191       H  0.63109002  0.72678574  0.29099498     0.13000
N2192       N  0.87453048  0.79199903  0.62416606    -0.03300
C2193       C  0.83970951  0.78486385  0.62841661    -0.00700
C2194       C  0.83242984  0.76766857  0.67098934    -0.23600
C2195       C  0.86376800  0.76383043  0.69374237    -0.23800
C2196       C  0.88936852  0.77783620  0.66389360    -0.00800
H2197       H  0.80786877  0.75481553  0.68182804     0.12900
H2198       H  0.86795687  0.74680329  0.72516058     0.13000
O2199       O  0.53844887  0.80334742  0.42598177    -0.80700
O2200       O  0.51326504  0.69695795  0.57985567    -0.65400
O2201       O  0.51014000  0.77257076  0.34403944    -1.12000
C2202       C  0.93362655  0.69125329  0.42171793     1.06100
O2203       O  0.96059687  0.67024405  0.59017695    -0.78600
O2204       O  0.92928710  0.73208568  0.63446745    -0.66200
Ni2205     Ni  0.55476859  0.79246020  0.36361061     1.34900
C2206       C  0.92347485  0.75807876  0.66509972     0.84900
O2207       O  0.53473414  0.76981526  0.58694420    -0.79200
O2208       O  0.57701610  0.78765532  0.63579688    -0.89500
C2209       C  0.48920554  0.67372948  0.56770444     0.84500
O2210       O  0.56976077  0.74150740  0.38168924    -0.67700
O2211       O  0.92203017  0.68593956  0.38036031    -0.86900
C2212       C  0.57557252  0.71551387  0.35105726     0.85300
C2213       C  0.56541946  0.78234108  0.59443920     1.06900
H2214       H  0.00381663  0.67961712  0.34802334     0.38700
O2215       O  0.98890581  0.70102400  0.33878493    -1.09600
O2216       O  0.94211888  0.76106818  0.70204430    -0.66300
Ni2217     Ni  0.98697064  0.73880705  0.38760089     1.26300
O2218       O  0.55692815  0.71252480  0.31411293    -0.66500
O2219       O  0.96431214  0.70377837  0.42921358    -0.78800
C2220       C  0.00983949  0.79986354  0.44845325     0.84700
O2221       O  0.98577978  0.77663560  0.43630190    -0.66000
Ni2222     Ni  0.94427765  0.68113318  0.65254744     1.27400
Ni2223     Ni  0.51207547  0.73478721  0.62855683     1.26100
H2224       H  0.49522717  0.79398043  0.66813332     0.39200
C2225       C  0.49542936  0.57783634  0.52965479     0.80400
N2226       N  0.97779959  0.61179854  0.53360305    -0.77900
C2227       C  0.49542939  0.64575989  0.52965393     0.82800
N2228       N  0.52608386  0.64607753  0.50532960    -0.77900
C2229       C  0.53971485  0.61179699  0.48943925     0.82900
N2230       N  0.52608329  0.57751680  0.50532901    -0.79600
C2231       C  0.61205590  0.64625362  0.41329395     0.80400
N2232       N  0.62624918  0.61179493  0.39972294    -0.77900
C2233       C  0.61205441  0.57733724  0.41329304     0.82800
N2234       N  0.58366778  0.57738393  0.44197929    -0.77900
C2235       C  0.57006660  0.61179669  0.45756304     0.82900
N2236       N  0.58366779  0.64620879  0.44197794    -0.79600
N2237       N  0.62451522  0.54199715  0.39199133    -0.03300
C2238       C  0.65933638  0.53486220  0.38774071    -0.00700
C2239       C  0.66661669  0.01766645  0.34516862    -0.23600
C2240       C  0.63527850  0.01382803  0.32241601    -0.23800
C2241       C  0.60967738  0.52783378  0.35226456    -0.00800
H2242       H  0.69117851  0.00481418  0.33432967     0.12900
H2243       H  0.63109021  0.99680144  0.29099784     0.13000
N2244       N  0.87453073  0.93159466  0.62416953    -0.03300
C2245       C  0.83970934  0.93872881  0.62842029    -0.00700
C2246       C  0.83242935  0.95592549  0.67099177    -0.23600
C2247       C  0.86376763  0.95976474  0.69374387    -0.23800
C2248       C  0.88936867  0.94575876  0.66389582    -0.00800
H2249       H  0.80786763  0.46877807  0.68183042     0.12900
H2250       H  0.86795606  0.47679207  0.72516134     0.13000
O2251       O  0.96059617  0.55335194  0.59017748    -0.80700
O2252       O  0.98578225  0.94695743  0.43630333    -0.65400
O2253       O  0.98890563  0.52257099  0.33878598    -1.12000
C2254       C  0.56541903  0.94125425  0.59443911     1.06100
O2255       O  0.53845007  0.92024078  0.42598087    -0.78600
O2256       O  0.56975980  0.98208280  0.38169087    -0.66200
Ni2257     Ni  0.94427694  0.54246302  0.65254907     1.34900
C2258       C  0.57557130  0.50807664  0.35105890     0.84900
O2259       O  0.96431353  0.01981536  0.42921468    -0.79200
O2260       O  0.92203027  0.53765622  0.38036317    -0.89500
C2261       C  0.00984152  0.92372714  0.44845392     0.84500
O2262       O  0.92928524  0.99151109  0.63447002    -0.67700
O2263       O  0.57701598  0.93593887  0.63579660    -0.86900
C2264       C  0.92347432  0.96551670  0.66510172     0.85300
C2265       C  0.93362736  0.53234036  0.42172056     1.06900
H2266       H  0.49523040  0.92961770  0.66813547     0.38700
O2267       O  0.51014066  0.95102361  0.34403989    -1.09600
O2268       O  0.55692659  0.51106751  0.31411481    -0.66300
Ni2269     Ni  0.51207509  0.48880804  0.62855773     1.26300
O2270       O  0.94211852  0.96252672  0.70204633    -0.66500
O2271       O  0.53473327  0.95377992  0.58694415    -0.78800
C2272       C  0.48920562  0.54986703  0.56770593     0.84700
O2273       O  0.51326555  0.52663816  0.57985774    -0.66000
Ni2274     Ni  0.55476922  0.93113129  0.36361012     1.27400
Ni2275     Ni  0.98697127  0.98478693  0.38760175     1.26100
H2276       H  0.00381850  0.54398000  0.34802559     0.39200
C2277       C  0.88699266  0.89625532  0.60286757     0.80400
N2278       N  0.91538071  0.89620959  0.57418368    -0.77900
C2279       C  0.92898057  0.86179708  0.55859681     0.82800
N2280       N  0.91537801  0.82738467  0.57417830    -0.77900
C2281       C  0.88699088  0.82733887  0.60286366     0.82900
N2282       N  0.87279736  0.86179719  0.61643546    -0.79600
C2283       C  0.00361728  0.89575686  0.48650445     0.80400
N2284       N  0.52124645  0.86179430  0.48255525    -0.77900
C2285       C  0.00361610  0.82783319  0.48650389     0.82800
N2286       N  0.97296250  0.82751533  0.51083019    -0.77900
C2287       C  0.95933143  0.86179623  0.52671957     0.82900
N2288       N  0.97296319  0.89607626  0.51082976    -0.79600
N2289       N  0.62453236  0.79200120  0.89199231    -0.03300
C2290       C  0.58971115  0.78486816  0.88774112    -0.00700
C2291       C  0.58243146  0.76767647  0.84516688    -0.23600
C2292       C  0.61376987  0.76383890  0.82241347    -0.23800
C2293       C  0.63937044  0.77784060  0.85226364    -0.00800
H2294       H  0.55787005  0.75482576  0.83432669     0.12900
H2295       H  0.61795878  0.74681515  0.79099289     0.13000
N2296       N  0.87451319  0.68159179  0.79083030    -0.03300
C2297       C  0.90933438  0.68872559  0.79508170    -0.00700
C2298       C  0.91661379  0.70591770  0.83765547    -0.23600
C2299       C  0.88527559  0.70975458  0.86040904    -0.23800
C2300       C  0.85967509  0.69575250  0.83055896    -0.00800
H2301       H  0.94117463  0.71877063  0.84849426     0.12900
H2302       H  0.88108667  0.72678052  0.89182782     0.13000
O2303       O  0.71059445  0.67024369  0.92598078    -0.80700
O2304       O  0.73578367  0.77663540  0.74652023    -0.65400
O2305       O  0.73890548  0.70102378  0.84403911    -1.12000
C2306       C  0.81541829  0.78233809  0.92171873     1.06100
O2307       O  0.78845072  0.80335099  0.75684380    -0.78600
O2308       O  0.81975989  0.74150789  0.80113441    -0.66200
Ni2309     Ni  0.69427696  0.68113262  0.86360919     1.34900
C2310       C  0.82557038  0.71551339  0.83176610     0.84900
O2311       O  0.71431483  0.70377843  0.75361005    -0.79200
O2312       O  0.67203124  0.68593916  0.80246210    -0.89500
C2313       C  0.75984312  0.79986458  0.73436974     0.84500
O2314       O  0.67928511  0.73208497  0.88168770    -0.67700
O2315       O  0.82701569  0.78765234  0.88036106    -0.86900
C2316       C  0.67347521  0.75807991  0.85105628     0.85300
C2317       C  0.68362902  0.69125330  0.76110467     1.06900
H2318       H  0.74522764  0.79397966  0.84802315     0.38700
O2319       O  0.76014008  0.77257071  0.83878454    -1.09600
O2320       O  0.80692573  0.71252392  0.86871065    -0.66300
Ni2321     Ni  0.76207401  0.73478624  0.88760065     1.26300
O2322       O  0.69211957  0.76106889  0.81411129    -0.66500
O2323       O  0.78473255  0.76981296  0.92921386    -0.78800
C2324       C  0.73920306  0.67372789  0.94845295     0.84700
O2325       O  0.76326301  0.69695604  0.93630137    -0.66000
Ni2326     Ni  0.80476928  0.79246044  0.81921435     1.27400
Ni2327     Ni  0.73697199  0.73880708  0.79522271     1.26100
H2328       H  0.75381748  0.67961560  0.83480039     0.39200
C2329       C  0.63699313  0.82733971  0.91329594     0.80400
N2330       N  0.66538165  0.82738473  0.94197855    -0.77900
C2331       C  0.67898263  0.86179708  0.62422933     0.82800
N2332       N  0.66538062  0.89620961  0.94197941    -0.77900
C2333       C  0.63699270  0.89625592  0.91329626     0.82900
N2334       N  0.62279830  0.86179820  0.89972727    -0.79600
C2335       C  0.75362022  0.82783396  0.69631813     0.80400
N2336       N  0.77124941  0.86179562  0.70026737    -0.77900
C2337       C  0.75361879  0.89575753  0.69632150     0.82800
N2338       N  0.72296470  0.89607707  0.67199653    -0.77900
C2339       C  0.70933422  0.86179701  0.65610521     0.82900
N2340       N  0.72296621  0.82751622  0.67199362    -0.79600
N2341       N  0.62453171  0.93159538  0.89199327    -0.03300
C2342       C  0.58971059  0.93872892  0.88774160    -0.00700
C2343       C  0.58243057  0.95592299  0.84516844    -0.23600
C2344       C  0.61376901  0.95976175  0.82241589    -0.23800
C2345       C  0.63936975  0.94575791  0.85226574    -0.00800
H2346       H  0.55786866  0.46877442  0.83432880     0.12900
H2347       H  0.61795740  0.47678764  0.79099666     0.13000
N2348       N  0.87451359  0.54199682  0.79083429    -0.03300
C2349       C  0.90933513  0.53486353  0.79508532    -0.00700
C2350       C  0.91661524  0.01766911  0.83765856    -0.23600
C2351       C  0.88527671  0.01383011  0.86041118    -0.23800
C2352       C  0.85967577  0.52783397  0.83056191    -0.00800
H2353       H  0.94117707  0.00481766  0.84849838     0.12900
H2354       H  0.88108809  0.99680364  0.89182991     0.13000
O2355       O  0.78845066  0.92023919  0.75684666    -0.80700
O2356       O  0.76326227  0.52663371  0.93630454    -0.65400
O2357       O  0.76013938  0.95102069  0.83878791    -1.12000
C2358       C  0.68362779  0.53233857  0.76110528     1.06100
O2359       O  0.71059531  0.55335186  0.92598026    -0.78600
O2360       O  0.67928564  0.99151009  0.88169067    -0.66200
Ni2361     Ni  0.80476862  0.93112848  0.81921821     1.34900
C2362       C  0.67347492  0.96551610  0.85105930     0.84900
O2363       O  0.78473085  0.95377594  0.92921672    -0.79200
O2364       O  0.82701470  0.93593550  0.88036522    -0.89500
C2365       C  0.73920309  0.54986443  0.94845434     0.84500
O2366       O  0.81976076  0.98208036  0.80113816    -0.67700
O2367       O  0.67203036  0.53765454  0.80246269    -0.86900
C2368       C  0.82557080  0.50807496  0.83176907     0.85300
C2369       C  0.81541736  0.94125155  0.92172256     1.06900
H2370       H  0.75381636  0.54397550  0.83480124     0.38700
O2371       O  0.73890511  0.52256889  0.84404020    -1.09600
O2372       O  0.69211984  0.96252530  0.81411516    -0.66300
Ni2373     Ni  0.73697151  0.98478464  0.79522526     1.26300
O2374       O  0.80692607  0.51106499  0.86871363    -0.66500
O2375       O  0.71431380  0.01981293  0.75361087    -0.78800
C2376       C  0.75984218  0.92372572  0.73437388     0.84700
O2377       O  0.73578252  0.94695518  0.74652530    -0.66000
Ni2378     Ni  0.69427648  0.54246184  0.86360964     1.27400
Ni2379     Ni  0.76207340  0.48880472  0.88760315     1.26100
H2380       H  0.74522598  0.92961155  0.84802763     0.39200
C2381       C  0.74542642  0.57783425  0.98650495     0.78800
N2382       N  0.77608011  0.57751534  0.01083052    -0.77900
C2383       C  0.78971063  0.61179551  0.02672079     0.82800
N2384       N  0.77607928  0.64607623  0.01083057    -0.77900
C2385       C  0.74542603  0.64575796  0.98650417     0.82900
N2386       N  0.72779655  0.61179640  0.98255569    -0.79600
C2387       C  0.86205136  0.57733610  0.76953170     0.80400
N2388       N  0.87624655  0.61179412  0.78309854    -0.77900
C2389       C  0.86205252  0.64625255  0.76952785     0.82800
N2390       N  0.83366403  0.64620707  0.74084542    -0.77900
C2391       C  0.82006184  0.61179476  0.72526384     0.82900
N2392       N  0.83366272  0.57738207  0.74084945    -0.79600
N2393       N  0.62451692  0.68159261  0.72532399    -0.03300
C2394       C  0.65933801  0.68872714  0.72107318    -0.00700
C2395       C  0.66661744  0.70592243  0.67850044    -0.23600
C2396       C  0.63527912  0.70975989  0.65574744    -0.23800
C2397       C  0.60967859  0.69575519  0.68559662    -0.00800
H2398       H  0.69117834  0.71877563  0.66766140     0.12900
H2399       H  0.63109001  0.72678578  0.62432831     0.13000
N2400       N  0.87453050  0.79199906  0.95749941    -0.03300
C2401       C  0.83970951  0.78486393  0.96174997    -0.00700
C2402       C  0.83242981  0.76766870  0.00432268    -0.23600
C2403       C  0.86376796  0.76383049  0.02707563    -0.23800
C2404       C  0.88936851  0.77783621  0.99722694    -0.00800
H2405       H  0.80786874  0.75481569  0.01516141     0.12900
H2406       H  0.86795679  0.74680328  0.05849384     0.13000
O2407       O  0.53844887  0.80334737  0.75931511    -0.80700
O2408       O  0.51326506  0.69695800  0.91318892    -0.65400
O2409       O  0.51013998  0.77257079  0.67737272    -1.12000
C2410       C  0.93362658  0.69125326  0.75505125     1.06100
O2411       O  0.96059688  0.67024410  0.92351025    -0.78600
O2412       O  0.92928716  0.73208577  0.96780077    -0.66200
Ni2413     Ni  0.55476857  0.79246024  0.69694392     1.34900
C2414       C  0.92347484  0.75807877  0.99843310     0.84900
O2415       O  0.53473417  0.76981532  0.92027754    -0.79200
O2416       O  0.57701615  0.78765537  0.96913021    -0.89500
C2417       C  0.48920556  0.67372950  0.90103774     0.84500
O2418       O  0.56976079  0.74150744  0.71502247    -0.67700
O2419       O  0.92203018  0.68593955  0.71369365    -0.86900
C2420       C  0.57557249  0.71551386  0.68439052     0.85300
C2421       C  0.56541949  0.78234114  0.92777257     1.06900
H2422       H  0.00381661  0.67961722  0.68135653     0.38700
O2423       O  0.98890578  0.70102406  0.67211820    -1.09600
O2424       O  0.94211882  0.76106810  0.03537773    -0.66300
Ni2425     Ni  0.98697065  0.73880709  0.72093415     1.26300
O2426       O  0.55692808  0.71252474  0.64744624    -0.66500
O2427       O  0.96431217  0.70377837  0.76254685    -0.78800
C2428       C  0.00983953  0.79986357  0.78178652     0.84700
O2429       O  0.98577981  0.77663566  0.76963511    -0.66000
Ni2430     Ni  0.94427763  0.68113325  0.98588074     1.27400
Ni2431     Ni  0.51207550  0.73478724  0.96189011     1.26100
H2432       H  0.49522708  0.79398046  0.00146675     0.39200
C2433       C  0.49542940  0.57783632  0.86298819     0.80400
N2434       N  0.97779965  0.61179851  0.86693650    -0.77900
C2435       C  0.49542943  0.64575986  0.86298732     0.82800
N2436       N  0.52608393  0.64607745  0.83866302    -0.77900
C2437       C  0.53971487  0.61179693  0.82277258     0.82900
N2438       N  0.52608334  0.57751675  0.83866243    -0.79600
C2439       C  0.61205590  0.64625361  0.74662719     0.80400
N2440       N  0.62624920  0.61179493  0.73305616    -0.77900
C2441       C  0.61205443  0.57733724  0.74662630     0.82800
N2442       N  0.58366779  0.57738393  0.77531252    -0.77900
C2443       C  0.57006659  0.61179666  0.79089629     0.82900
N2444       N  0.58366780  0.64620877  0.77531119    -0.79600
N2445       N  0.62451523  0.54199713  0.72532465    -0.03300
C2446       C  0.65933637  0.53486214  0.72107406    -0.00700
C2447       C  0.66661670  0.01766648  0.67850199    -0.23600
C2448       C  0.63527851  0.01382808  0.65574936    -0.23800
C2449       C  0.60967740  0.52783381  0.68559787    -0.00800
H2450       H  0.69117853  0.00481422  0.66766311     0.12900
H2451       H  0.63109025  0.99680153  0.62433116     0.13000
N2452       N  0.87453076  0.93159473  0.95750285    -0.03300
C2453       C  0.83970935  0.93872890  0.96175361    -0.00700
C2454       C  0.83242935  0.95592558  0.00432505    -0.23600
C2455       C  0.86376761  0.95976467  0.02707719    -0.23800
C2456       C  0.88936866  0.94575881  0.99722914    -0.00800
H2457       H  0.80786763  0.46877823  0.01516365     0.12900
H2458       H  0.86795596  0.47679201  0.05849472     0.13000
O2459       O  0.96059618  0.55335195  0.92351078    -0.80700
O2460       O  0.98578222  0.94695744  0.76963661    -0.65400
O2461       O  0.98890567  0.52257101  0.67211929    -1.12000
C2462       C  0.56541905  0.94125430  0.92777248     1.06100
O2463       O  0.53845005  0.92024083  0.75931425    -0.78600
O2464       O  0.56975973  0.98208289  0.71502425    -0.66200
Ni2465     Ni  0.94427694  0.54246304  0.98588236     1.34900
C2466       C  0.57557132  0.50807667  0.68439223     0.84900
O2467       O  0.96431358  0.01981537  0.76254802    -0.79200
O2468       O  0.92203028  0.53765627  0.71369653    -0.89500
C2469       C  0.00984148  0.92372716  0.78178724     0.84500
O2470       O  0.92928524  0.99151113  0.96780332    -0.67700
O2471       O  0.57701598  0.93593889  0.96912995    -0.86900
C2472       C  0.92347428  0.96551679  0.99843504     0.85300
C2473       C  0.93362735  0.53234035  0.75505392     1.06900
H2474       H  0.49523045  0.92961795  0.00146871     0.38700
O2475       O  0.51014065  0.95102356  0.67737322    -1.09600
O2476       O  0.55692663  0.51106749  0.64744810    -0.66300
Ni2477     Ni  0.51207508  0.48880807  0.96189109     1.26300
O2478       O  0.94211848  0.96252680  0.03537968    -0.66500
O2479       O  0.53473330  0.95378000  0.92027751    -0.78800
C2480       C  0.48920563  0.54986700  0.90103927     0.84700
O2481       O  0.51326557  0.52663818  0.91319113    -0.66000
Ni2482     Ni  0.55476922  0.93113133  0.69694352     1.27400
Ni2483     Ni  0.98697129  0.98478692  0.72093504     1.26100
H2484       H  0.00381855  0.54398003  0.68135886     0.39200
C2485       C  0.88699272  0.89625536  0.93620097     0.80400
N2486       N  0.91538070  0.89620960  0.90751694    -0.77900
C2487       C  0.92898057  0.86179707  0.89193011     0.82800
N2488       N  0.91537805  0.82738469  0.90751173    -0.77900
C2489       C  0.88699090  0.82733890  0.93619704     0.82900
N2490       N  0.87279744  0.86179723  0.94976893    -0.79600
C2491       C  0.00361727  0.89575687  0.81983776     0.80400
N2492       N  0.52124641  0.86179430  0.81588852    -0.77900
C2493       C  0.00361611  0.82783320  0.81983713     0.82800
N2494       N  0.97296252  0.82751529  0.84416345    -0.77900
C2495       C  0.95933141  0.86179618  0.86005282     0.82900
N2496       N  0.97296317  0.89607621  0.84416305    -0.79600
loop_ 
_geom_bond_atom_site_label_1 
_geom_bond_atom_site_label_2 
_geom_bond_distance 
_geom_bond_site_symmetry_2 
_ccdc_geom_bond_type 
N1            C5   1.358       .  A
N1            C2   1.358       .  A
N1           C41   1.438       .  S
C2            C3   1.379       .  A
C2          C133   1.474       .  S
C3            C4   1.368       .  A
C3            H6   1.082       .  S
C4            C5   1.383       .  A
C4            H7   1.082       .  S
C5           C28   1.469       .  S
N8           C12   1.358       .  A
N8            C9   1.358       .  A
N8          C101   1.438       .  S
C9           C10   1.379       .  A
C9          C122   1.474       .  S
C10          C11   1.368       .  A
C10          H13   1.082       .  S
C11          C12   1.383       .  A
C11          H14   1.082       .  S
C12          C22   1.469       .  S
O15         Ni21   1.923       .  S
O15          C36   1.272       .  A
O16         Ni39   1.903       .  S
O16          C25   1.265       .  A
O17         Ni21   1.919       .  S
O17         Ni39   1.905       .  S
O17         Ni33   1.916       .  S
O17          H40   0.966       .  S
C18         C113   1.474       .  S
C18          O35   1.266       .  A
C18          O27   1.274       .  A
O19         Ni38   1.923       .  S
O19          C25   1.273       .  A
O20         Ni38   1.912       .  S
O20          C22   1.269       .  A
Ni21         O24   1.948       .  S
Ni21         O26   1.912       .  S
C22          O32   1.276       .  A
O23         Ni39   1.899       .  S
O23          C29   1.266       .  A
O24          C29   1.274       .  A
C25          C47   1.469       .  S
O26          C28   1.269       .  A
O27         Ni38   1.948       .  S
C28          O34   1.276       .  A
C29         C106   1.474       .  S
H30          O31   0.966       .  S
O31         Ni39   1.916       .  S
O31         Ni33   1.905       .  S
O31         Ni38   1.919       .  S
O32         Ni33   1.952       .  S
Ni33         O37   1.903       .  S
Ni33         O35   1.899       .  S
O34         Ni39   1.952       .  S
C36          C97   1.469       .  S
C36          O37   1.265       .  A
C41          N42   1.358       .  A
C41          N46   1.358       .  A
N42         C251   1.365       .  A
C43         N458   1.365       .  A
C43         N460   1.365       .  A
C43          C51   1.473       .  S
N44          C45   1.358       .  A
N44         C251   1.365       .  A
C45          N46   1.358       .  A
C45          N53   1.438       .  S
C47          N48   1.351       .  A
C47          N52   1.361       .  A
N48          C49   1.351       .  A
C49          N50   1.361       .  A
C49          C88   1.469       .  S
N50          C51   1.365   1_554  A
C51          N52   1.365   1_556  A
N53          C57   1.358       .  A
N53          C54   1.358       .  A
C54          C55   1.379       .  A
C54         C174   1.474       .  S
C55          C56   1.368       .  A
C55         H682   1.082       .  S
C56          C57   1.383       .  A
C56         H683   1.082       .  S
C57          C74   1.469       .  S
H58         C679   1.082       .  S
H59         C680   1.082       .  S
N60          C64   1.358       .  A
N60          C61   1.358       .  A
N60          C99   1.438       .  S
C61         C686   1.379       .  A
C61         C185   1.474       .  S
C62          C63   1.368       .  A
C62         C685   1.379       .  A
C62          H65   1.082       .  S
C63         C688   1.383       .  A
C63          H66   1.082       .  S
C64         C687   1.383       .  A
C64          C80   1.469       .  S
O67         Ni73   1.923       .  S
O67          C88   1.273       .  A
O68         Ni91   1.903   1_545  S
O68          C77   1.265       .  A
O69         Ni73   1.919       .  S
O69         Ni85   1.916       .  S
O69        Ni715   1.905       .  S
O69          H92   0.967       .  S
C70         C158   1.474       .  S
C70          O79   1.274       .  A
C70         O711   1.266       .  A
O71         Ni90   1.923       .  S
O71          C77   1.273       .  A
O72        Ni714   1.912       .  S
O72          C74   1.269       .  A
Ni73         O76   1.948       .  S
Ni73         O78   1.912       .  S
C74          O84   1.276       .  A
O75        Ni715   1.899       .  S
O75          C81   1.266       .  A
O76          C81   1.274       .  A
C77          C93   1.469       .  S
O78         C704   1.269       .  A
O79         Ni90   1.948       .  S
C80          O86   1.276       .  A
C80         O702   1.269   1_545  A
C81         C165   1.474       .  S
H82          O83   0.966       .  S
O83         Ni91   1.916   1_545  S
O83         Ni90   1.919       .  S
O83        Ni709   1.905   1_545  S
O84         Ni85   1.951       .  S
Ni85         O89   1.903       .  S
Ni85         O87   1.899       .  S
Ni85        O707   1.905       .  S
O86         Ni91   1.952   1_545  S
O87         C694   1.266       .  A
C88          O89   1.265       .  A
Ni90        O696   1.912   1_545  S
Ni91        O699   1.899       .  S
Ni91        O693   1.905       .  S
C93          N94   1.361       .  A
C93          N98   1.351       .  A
N94          C95   1.365       .  A
C95          N96   1.365       .  A
C95         C311   1.473       .  S
N96          C97   1.361       .  A
C97          N98   1.351       .  A
C99         N100   1.358       .  A
C99         N104   1.358       .  A
N100        C101   1.358       .  A
C101        N102   1.358       .  A
N102        C103   1.365       .  A
C103        N104   1.365       .  A
C103        C511   1.473       .  S
N105        C109   1.358       .  A
N105        C106   1.358       .  A
N105        C151   1.438       .  S
C106        C107   1.379       .  A
C107        C108   1.368   1_554  A
C107        H110   1.082       .  S
C108        C109   1.383   1_556  A
C108        H111   1.082       .  S
C109        C132   1.469       .  S
N112        C116   1.358       .  A
N112        C113   1.358       .  A
N112        C201   1.438       .  S
C113        C114   1.379       .  A
C114        C115   1.368       .  A
C114        H117   1.082       .  S
C115        C116   1.383       .  A
C115        H118   1.082       .  S
C116        C126   1.469       .  S
O119       Ni125   1.923       .  S
O119       C1388   1.273       .  A
O120       Ni143   1.903       .  S
O120        C129   1.265   1_455  A
O121       Ni125   1.919       .  S
O121       Ni559   1.905   1_554  S
O121      Ni1385   1.916   1_455  S
O121        H560   0.967   1_455  S
C122        O139   1.266       .  A
C122        O131   1.274       .  A
O123       Ni142   1.923       .  S
O123       C1377   1.272       .  A
O124       Ni142   1.912       .  S
O124        C126   1.269       .  A
Ni125       O130   1.912       .  S
Ni125       O544   1.948   1_554  S
C126        O136   1.276       .  A
O127       Ni143   1.899       .  S
O127        C133   1.266       .  A
O128       Ni333   1.948       .  S
O128        C133   1.274       .  A
C129        C147   1.469       .  S
C129       O1371   1.272       .  A
O130        C132   1.269       .  A
O131       Ni558   1.948   1_554  S
C132        O138   1.276   1_554  A
H134        O135   0.966       .  S
O135       Ni137   1.905       .  S
O135      Ni1807   1.916   1_554  S
O135       Ni558   1.919   1_554  S
O136       Ni345   1.952       .  S
Ni137       O141   1.903       .  S
Ni137       O139   1.899       .  S
Ni137       O552   1.952       .  S
Ni137      O1369   1.916       .  S
O138       Ni559   1.952       .  S
C140        C205   1.469       .  S
C140        O141   1.265       .  A
C140       O1367   1.273       .  A
Ni142       O339   1.948       .  S
Ni142       O343   1.919       .  S
Ni143       O346   1.952       .  S
Ni143       O329   1.905       .  S
Ni143      O1591   1.916   1_455  S
H144        O329   0.967   1_655  S
C145        N150   1.361   1_655  A
C145       N1394   1.351       .  A
C145        C192   1.469       .  S
N146       C1393   1.351       .  A
N146       C1395   1.351       .  A
C147        N148   1.361   1_655  A
C147       N1394   1.351       .  A
N148        C149   1.365       .  A
C149        N150   1.365       .  A
C149        C155   1.473       .  S
C151        N152   1.358       .  A
C151        N156   1.358       .  A
N152        C153   1.358       .  A
C153        N154   1.358       .  A
C153        N157   1.438       .  S
N154        C155   1.365       .  A
C155        N156   1.365       .  A
N157        C161   1.358       .  A
N157        C158   1.358       .  A
C158        C783   1.379       .  A
C159        C160   1.368   1_554  A
C159        C782   1.379       .  A
C159        H162   1.082       .  S
C160        C785   1.383   1_556  A
C160        H163   1.082       .  S
C161        C784   1.383   1_554  A
C161        C178   1.469       .  S
N164        C168   1.358       .  A
N164        C165   1.358       .  A
N164        C197   1.438       .  S
C165        C166   1.379       .  A
C166        C167   1.368       .  A
C166        H793   1.082       .  S
C167        C168   1.383       .  A
C167        H794   1.082       .  S
C168        C184   1.469       .  S
H169        C790   1.082       .  S
H170        C791   1.082       .  S
O171       Ni177   1.923       .  S
O171       C1440   1.273       .  A
O172       Ni195   1.903       .  S
O172        C181   1.265       .  A
O173       Ni593   1.919   1_554  S
O173       Ni819   1.905   1_545  S
O173      Ni1853   1.916   1_544  S
O173        H196   0.967       .  S
C174        O191   1.266       .  A
C174        O183   1.274       .  A
O175       Ni194   1.923       .  S
O175       C1429   1.273       .  A
O176       Ni194   1.912       .  S
O176        C802   1.269       .  A
Ni177       O388   1.948       .  S
Ni177       O806   1.912   1_545  S
Ni177       O381   1.919       .  S
C178        O188   1.276   1_554  A
C178        O800   1.269   1_545  A
O179       Ni195   1.899       .  S
O179        C809   1.266       .  A
O180       Ni593   1.948   1_554  S
O180        C185   1.274       .  A
C181        C203   1.469       .  S
C181       O1423   1.273       .  A
O182       Ni801   1.912       .  S
O182        C184   1.269       .  A
O183       Ni402   1.948       .  S
C184        O190   1.276       .  A
C185        O803   1.266       .  A
H186        O395   0.966   1_655  S
O187       Ni194   1.919       .  S
O187      Ni1443   1.916   1_455  S
O187      Ni1229   1.905   1_554  S
O187        H602   0.966   1_455  S
O188       Ni605   1.952   1_545  S
Ni189       O193   1.903   1_565  S
Ni189       O396   1.952   1_565  S
Ni189       O815   1.899       .  S
Ni189      O1629   1.916   1_465  S
Ni189      O1019   1.905       .  S
O190       Ni403   1.952       .  S
O191       Ni813   1.899       .  S
C192        O193   1.265   1_655  A
C192       O1419   1.273       .  A
Ni194       O599   1.948   1_554  S
Ni195       O606   1.952       .  S
Ni195       O797   1.905       .  S
Ni195      O1435   1.916       .  S
C197        N198   1.358       .  A
C197        N202   1.358       .  A
N198        C199   1.365       .  A
C199        N200   1.365       .  A
C199        C207   1.473       .  S
N200        C201   1.358       .  A
C201        N202   1.358       .  A
C203        N208   1.361       .  A
C203       N1452   1.351       .  A
N204       C1451   1.351       .  A
N204       C1453   1.351       .  A
C205        N206   1.361       .  A
C205       N1452   1.351       .  A
N206        C207   1.365       .  A
C207        N208   1.365       .  A
N209        C213   1.358       .  A
N209        C210   1.358       .  A
N209        C249   1.438       .  S
C210        C211   1.379       .  A
C210        C341   1.474       .  S
C211        C212   1.368       .  A
C211        H214   1.082       .  S
C212        C213   1.383       .  A
C212        H215   1.082       .  S
C213        C236   1.469       .  S
N216        C220   1.358       .  A
N216        C217   1.358       .  A
N216        C309   1.438       .  S
C217        C218   1.379       .  A
C217        C330   1.474       .  S
C218        C219   1.368       .  A
C218        H221   1.082       .  S
C219        C220   1.383       .  A
C219        H222   1.082       .  S
C220        C230   1.469       .  S
O223       Ni229   1.923       .  S
O223        C244   1.272       .  A
O224       Ni247   1.903       .  S
O224        C233   1.265       .  A
O225       Ni229   1.919       .  S
O225       Ni247   1.905       .  S
O225       Ni241   1.916       .  S
O225        H248   0.966       .  S
C226        C321   1.474       .  S
C226        O243   1.266       .  A
C226        O235   1.274       .  A
O227       Ni246   1.923       .  S
O227        C233   1.273       .  A
O228       Ni246   1.912       .  S
O228        C230   1.269       .  A
Ni229       O232   1.948       .  S
Ni229       O234   1.912       .  S
C230        O240   1.276       .  A
O231       Ni247   1.899       .  S
O231        C237   1.266       .  A
O232        C237   1.274       .  A
C233        C255   1.469       .  S
O234        C236   1.269       .  A
O235       Ni246   1.948       .  S
C236        O242   1.276       .  A
C237        C314   1.474       .  S
H238        O239   0.966       .  S
O239       Ni247   1.916       .  S
O239       Ni241   1.905       .  S
O239       Ni246   1.919       .  S
O240       Ni241   1.952       .  S
Ni241       O245   1.903       .  S
Ni241       O243   1.899       .  S
O242       Ni247   1.952       .  S
C244        C305   1.469       .  S
C244        O245   1.265       .  A
C249        N250   1.358       .  A
C249        N254   1.358       .  A
N250        C459   1.365       .  A
C251        C259   1.473       .  S
N252        C459   1.365       .  A
N252        C253   1.358       .  A
C253        N254   1.358       .  A
C253        N261   1.438       .  S
C255        N256   1.351       .  A
C255        N260   1.361       .  A
N256        C257   1.351       .  A
C257        N258   1.361       .  A
C257        C296   1.469       .  S
N258        C259   1.365       .  A
C259        N260   1.365       .  A
N261        C265   1.358       .  A
N261        C262   1.358       .  A
C262        C263   1.379       .  A
C262        C382   1.474       .  S
C263        C264   1.368       .  A
C263        H890   1.082       .  S
C264        C265   1.383       .  A
C264        H891   1.082       .  S
C265        C282   1.469       .  S
H266        C887   1.082       .  S
H267        C888   1.082       .  S
N268        C272   1.358       .  A
N268        C269   1.358       .  A
N268        C307   1.438       .  S
C269        C894   1.379       .  A
C269        C393   1.474       .  S
C270        C893   1.379       .  A
C270        C271   1.368       .  A
C270        H273   1.082       .  S
C271        C896   1.383       .  A
C271        H274   1.082       .  S
C272        C895   1.383       .  A
C272        C288   1.469       .  S
O275       Ni281   1.923       .  S
O275        C296   1.273       .  A
O276       Ni299   1.903   1_545  S
O276        C285   1.265       .  A
O277       Ni281   1.919       .  S
O277       Ni923   1.905       .  S
O277       Ni293   1.916       .  S
O277        H300   0.967       .  S
C278        C366   1.474       .  S
C278        O919   1.266       .  A
C278        O287   1.274       .  A
O279       Ni298   1.923       .  S
O279        C285   1.273       .  A
O280       Ni922   1.912       .  S
O280        C282   1.269       .  A
Ni281       O284   1.948       .  S
Ni281       O286   1.912       .  S
C282        O292   1.276       .  A
O283       Ni923   1.899       .  S
O283        C289   1.266       .  A
O284        C289   1.274       .  A
C285        C301   1.469       .  S
O286        C912   1.269       .  A
O287       Ni298   1.948       .  S
C288        O910   1.269   1_545  A
C288        O294   1.276       .  A
C289        C373   1.474       .  S
H290        O291   0.966       .  S
O291       Ni299   1.916   1_545  S
O291       Ni917   1.905   1_545  S
O291       Ni298   1.919       .  S
O292       Ni293   1.951       .  S
Ni293       O297   1.903       .  S
Ni293       O295   1.899       .  S
Ni293       O915   1.905       .  S
O294       Ni299   1.952   1_545  S
O295        C902   1.266       .  A
C296        O297   1.265       .  A
Ni298       O904   1.912   1_545  S
Ni299       O907   1.899       .  S
Ni299       O901   1.905       .  S
C301        N302   1.361       .  A
C301        N306   1.351       .  A
N302        C303   1.365       .  A
C303        N304   1.365       .  A
C303        C519   1.473       .  S
N304        C305   1.361       .  A
C305        N306   1.351       .  A
C307        N308   1.358       .  A
C307        N312   1.358       .  A
N308        C309   1.358       .  A
C309        N310   1.358       .  A
N310        C311   1.365       .  A
C311        N312   1.365       .  A
N313        C317   1.358       .  A
N313        C314   1.358       .  A
N313        C359   1.438       .  S
C314        C315   1.379       .  A
C315        C316   1.368       .  A
C315        H318   1.082       .  S
C316        C317   1.383       .  A
C316        H319   1.082       .  S
C317        C340   1.469       .  S
N320        C324   1.358       .  A
N320        C321   1.358       .  A
N320        C409   1.438       .  S
C321        C322   1.379       .  A
C322        C323   1.368       .  A
C322        H325   1.082       .  S
C323        C324   1.383       .  A
C323        H326   1.082       .  S
C324        C334   1.469       .  S
O327       Ni333   1.923       .  S
O327       C1596   1.273       .  A
O328       Ni351   1.903       .  S
O328        C337   1.265   1_455  A
O329       Ni333   1.919       .  S
O329      Ni1593   1.916   1_455  S
C330        O347   1.266       .  A
C330        O339   1.274       .  A
O331       Ni350   1.923       .  S
O331       C1585   1.272       .  A
O332       Ni350   1.912       .  S
O332        C334   1.269       .  A
Ni333       O338   1.912       .  S
C334        O344   1.276       .  A
O335       Ni351   1.899       .  S
O335        C341   1.266       .  A
O336       Ni541   1.948       .  S
O336        C341   1.274       .  A
C337        C355   1.469       .  S
C337       O1579   1.272       .  A
O338        C340   1.269       .  A
C340        O346   1.276       .  A
H342        O343   0.966       .  S
O343      Ni1391   1.916       .  S
O343       Ni345   1.905       .  S
O344       Ni553   1.952       .  S
Ni345       O349   1.903       .  S
Ni345       O347   1.899       .  S
Ni345      O1577   1.916       .  S
C348        C413   1.469       .  S
C348       O1575   1.273       .  A
C348        O349   1.265       .  A
Ni350       O547   1.948       .  S
Ni350       O551   1.919       .  S
Ni351       O554   1.952       .  S
Ni351       O537   1.905       .  S
Ni351      O1799   1.916   1_455  S
H352        O537   0.967   1_655  S
C353       N1602   1.351       .  A
C353        N358   1.361   1_655  A
C353        C400   1.469       .  S
N354       C1601   1.351       .  A
N354       C1603   1.351       .  A
C355       N1602   1.351       .  A
C355        N356   1.361   1_655  A
N356        C357   1.365       .  A
C357        N358   1.365       .  A
C357        C363   1.473       .  S
C359        N360   1.358       .  A
C359        N364   1.358       .  A
N360        C361   1.358       .  A
C361        N362   1.358       .  A
C361        N365   1.438       .  S
N362        C363   1.365       .  A
C363        N364   1.365       .  A
N365        C369   1.358       .  A
N365        C366   1.358       .  A
C366        C991   1.379       .  A
C367        C990   1.379       .  A
C367        C368   1.368       .  A
C367        H370   1.082       .  S
C368        C993   1.383       .  A
C368        H371   1.082       .  S
C369        C992   1.383       .  A
C369        C386   1.469       .  S
N372        C376   1.358       .  A
N372        C373   1.358       .  A
N372        C405   1.438       .  S
C373        C374   1.379       .  A
C374        C375   1.368       .  A
C374       H1001   1.082       .  S
C375        C376   1.383       .  A
C375       H1002   1.082       .  S
C376        C392   1.469       .  S
H377        C998   1.082       .  S
H378        C999   1.082       .  S
O379       Ni385   1.923       .  S
O379       C1648   1.273       .  A
O380       Ni403   1.903       .  S
O380        C389   1.265       .  A
O381      Ni1027   1.905   1_545  S
O381      Ni1437   1.916   1_545  S
O381        H404   0.967       .  S
C382        O399   1.266       .  A
C382        O391   1.274       .  A
O383       Ni402   1.923       .  S
O383       C1637   1.273       .  A
O384       Ni402   1.912       .  S
O384       C1010   1.269       .  A
Ni385       O596   1.948       .  S
Ni385      O1014   1.912   1_545  S
Ni385       O589   1.919       .  S
C386       O1008   1.269   1_545  A
C386        O396   1.276       .  A
O387       Ni403   1.899       .  S
O387       C1017   1.266       .  A
O388        C393   1.274       .  A
C389        C411   1.469       .  S
C389       O1631   1.273       .  A
O390      Ni1009   1.912       .  S
O390        C392   1.269       .  A
O391       Ni610   1.948       .  S
C392        O398   1.276       .  A
C393       O1011   1.266       .  A
H394        O603   0.966   1_655  S
O395      Ni1651   1.916   1_455  S
O395       Ni813   1.905       .  S
O395       Ni402   1.919       .  S
Ni397       O604   1.952   1_565  S
Ni397       O401   1.903   1_565  S
Ni397      O1023   1.899       .  S
Ni397      O1837   1.916   1_465  S
Ni397      O1227   1.905       .  S
O398       Ni611   1.952       .  S
O399      Ni1021   1.899       .  S
C400       O1627   1.273       .  A
C400        O401   1.265   1_655  A
Ni403      O1005   1.905       .  S
Ni403      O1643   1.916       .  S
C405        N406   1.358       .  A
C405        N410   1.358       .  A
N406        C407   1.365       .  A
C407        N408   1.365       .  A
C407        C415   1.473       .  S
N408        C409   1.358       .  A
C409        N410   1.358       .  A
C411       N1660   1.351       .  A
C411        N416   1.361       .  A
N412       C1659   1.351       .  A
N412       C1661   1.351       .  A
C413       N1660   1.351       .  A
C413        N414   1.361       .  A
N414        C415   1.365       .  A
C415        N416   1.365       .  A
N417        C421   1.358       .  A
N417        C418   1.358       .  A
N417        C457   1.438       .  S
C418        C419   1.379       .  A
C418        C549   1.474       .  S
C419        C420   1.368       .  A
C419        H422   1.082       .  S
C420        C421   1.383       .  A
C420        H423   1.082       .  S
C421        C444   1.469       .  S
N424        C428   1.358       .  A
N424        C425   1.358       .  A
N424        C517   1.438       .  S
C425        C426   1.379       .  A
C425        C538   1.474       .  S
C426        C427   1.368       .  A
C426        H429   1.082       .  S
C427        C428   1.383       .  A
C427        H430   1.082       .  S
C428        C438   1.469       .  S
O431       Ni437   1.923       .  S
O431        C452   1.272       .  A
O432       Ni455   1.903       .  S
O432        C441   1.265       .  A
O433       Ni437   1.919       .  S
O433       Ni455   1.905       .  S
O433       Ni449   1.916       .  S
O433        H456   0.966       .  S
C434        C529   1.474       .  S
C434        O451   1.266       .  A
C434        O443   1.274       .  A
O435       Ni454   1.923       .  S
O435        C441   1.273       .  A
O436       Ni454   1.912       .  S
O436        C438   1.269       .  A
Ni437       O440   1.948       .  S
Ni437       O442   1.912       .  S
C438        O448   1.276       .  A
O439       Ni455   1.899       .  S
O439        C445   1.266       .  A
O440        C445   1.274       .  A
C441        C463   1.469       .  S
O442        C444   1.269       .  A
O443       Ni454   1.948       .  S
C444        O450   1.276       .  A
C445        C522   1.474       .  S
H446        O447   0.966       .  S
O447       Ni455   1.916       .  S
O447       Ni449   1.905       .  S
O447       Ni454   1.919       .  S
O448       Ni449   1.952       .  S
Ni449       O453   1.903       .  S
Ni449       O451   1.899       .  S
O450       Ni455   1.952       .  S
C452        C513   1.469       .  S
C452        O453   1.265       .  A
C457        N458   1.358       .  A
C457        N462   1.358       .  A
C459        C467   1.473       .  S
N460        C461   1.358       .  A
C461        N462   1.358       .  A
C461        N469   1.438       .  S
C463        N464   1.351       .  A
C463        N468   1.361       .  A
N464        C465   1.351       .  A
C465        N466   1.361       .  A
C465        C504   1.469       .  S
N466        C467   1.365       .  A
C467        N468   1.365       .  A
N469        C473   1.358       .  A
N469        C470   1.358       .  A
C470        C471   1.379       .  A
C470        C590   1.474       .  S
C471        C472   1.368       .  A
C471       H1098   1.082       .  S
C472        C473   1.383       .  A
C472       H1099   1.082       .  S
C473        C490   1.469       .  S
H474       C1095   1.082       .  S
H475       C1096   1.082       .  S
N476        C480   1.358       .  A
N476        C477   1.358       .  A
N476        C515   1.438       .  S
C477       C1102   1.379       .  A
C477        C601   1.474       .  S
C478       C1101   1.379       .  A
C478        C479   1.368       .  A
C478        H481   1.082       .  S
C479       C1104   1.383       .  A
C479        H482   1.082       .  S
C480       C1103   1.383       .  A
C480        C496   1.469       .  S
O483       Ni489   1.923       .  S
O483        C504   1.273       .  A
O484       Ni507   1.903   1_545  S
O484        C493   1.265       .  A
O485       Ni489   1.919       .  S
O485      Ni1131   1.905       .  S
O485       Ni501   1.916       .  S
O485        H508   0.967       .  S
C486        C574   1.474       .  S
C486       O1127   1.266       .  A
C486        O495   1.274       .  A
O487       Ni506   1.923       .  S
O487        C493   1.273       .  A
O488      Ni1130   1.912       .  S
O488        C490   1.269       .  A
Ni489       O492   1.948       .  S
Ni489       O494   1.912       .  S
C490        O500   1.276       .  A
O491      Ni1131   1.899       .  S
O491        C497   1.266       .  A
O492        C497   1.274       .  A
C493        C509   1.469       .  S
O494       C1120   1.269       .  A
O495       Ni506   1.948       .  S
C496       O1118   1.269   1_545  A
C496        O502   1.276       .  A
C497        C581   1.474       .  S
H498        O499   0.966       .  S
O499       Ni507   1.916   1_545  S
O499      Ni1125   1.905   1_545  S
O499       Ni506   1.919       .  S
O500       Ni501   1.951       .  S
Ni501       O505   1.903       .  S
Ni501       O503   1.899       .  S
Ni501      O1123   1.905       .  S
O502       Ni507   1.952   1_545  S
O503       C1110   1.266       .  A
C504        O505   1.265       .  A
Ni506      O1112   1.912   1_545  S
Ni507      O1115   1.899       .  S
Ni507      O1109   1.905       .  S
C509        N510   1.361   1_556  A
C509        N514   1.351       .  A
N510        C511   1.365       .  A
C511        N512   1.365       .  A
N512        C513   1.361   1_554  A
C513        N514   1.351       .  A
C515        N516   1.358       .  A
C515        N520   1.358       .  A
N516        C517   1.358       .  A
C517        N518   1.358       .  A
N518        C519   1.365       .  A
C519        N520   1.365       .  A
N521        C525   1.358       .  A
N521        C522   1.358       .  A
N521        C567   1.438       .  S
C522        C523   1.379       .  A
C523        C524   1.368       .  A
C523        H526   1.082       .  S
C524        C525   1.383       .  A
C524        H527   1.082       .  S
C525        C548   1.469       .  S
N528        C532   1.358       .  A
N528        C529   1.358       .  A
N528        C617   1.438       .  S
C529        C530   1.379   1_556  A
C530        C531   1.368       .  A
C530        H533   1.082       .  S
C531        C532   1.383   1_554  A
C531        H534   1.082       .  S
C532        C542   1.469       .  S
O535       Ni541   1.923       .  S
O535       C1804   1.273       .  A
O536       Ni559   1.903       .  S
O536        C545   1.265   1_455  A
O537       Ni541   1.919       .  S
O537      Ni1801   1.916   1_455  S
C538        O555   1.266       .  A
C538        O547   1.274       .  A
O539       Ni558   1.923       .  S
O539       C1793   1.272       .  A
O540       Ni558   1.912       .  S
O540        C542   1.269       .  A
Ni541       O546   1.912       .  S
C542        O552   1.276   1_556  A
O543       Ni559   1.899       .  S
O543        C549   1.266       .  A
O544        C549   1.274       .  A
C545        C563   1.469       .  S
C545       O1787   1.272       .  A
O546        C548   1.269       .  A
C548        O554   1.276       .  A
H550        O551   0.966       .  S
O551      Ni1599   1.916       .  S
O551       Ni553   1.905       .  S
Ni553       O557   1.903       .  S
Ni553       O555   1.899       .  S
Ni553      O1785   1.916       .  S
C556        C621   1.469       .  S
C556       O1783   1.273       .  A
C556        O557   1.265       .  A
Ni559      O1383   1.916   1_456  S
C561       N1810   1.351       .  A
C561        N566   1.361   1_655  A
C561        C608   1.469       .  S
N562       C1809   1.351       .  A
N562       C1811   1.351       .  A
C563       N1810   1.351       .  A
C563        N564   1.361   1_655  A
N564        C565   1.365       .  A
C565        N566   1.365       .  A
C565        C571   1.473       .  S
C567        N568   1.358       .  A
C567        N572   1.358       .  A
N568        C569   1.358       .  A
C569        N570   1.358       .  A
C569        N573   1.438       .  S
N570        C571   1.365       .  A
C571        N572   1.365       .  A
N573        C577   1.358       .  A
N573        C574   1.358       .  A
C574       C1199   1.379       .  A
C575       C1198   1.379       .  A
C575        C576   1.368       .  A
C575        H578   1.082       .  S
C576       C1201   1.383       .  A
C576        H579   1.082       .  S
C577       C1200   1.383       .  A
C577        C594   1.469       .  S
N580        C584   1.358       .  A
N580        C581   1.358       .  A
N580        C613   1.438       .  S
C581        C582   1.379   1_556  A
C582        C583   1.368       .  A
C582       H1209   1.082       .  S
C583        C584   1.383   1_554  A
C583       H1210   1.082       .  S
C584        C600   1.469       .  S
H585       C1206   1.082       .  S
H586       C1207   1.082       .  S
O587       Ni593   1.923       .  S
O587       C1856   1.273       .  A
O588       Ni611   1.903       .  S
O588        C597   1.265       .  A
O589      Ni1235   1.905   1_545  S
O589      Ni1645   1.916   1_545  S
O589        H612   0.967       .  S
C590        O607   1.266       .  A
C590        O599   1.274       .  A
O591       Ni610   1.923       .  S
O591       C1845   1.273       .  A
O592       Ni610   1.912       .  S
O592       C1218   1.269       .  A
Ni593      O1222   1.912   1_545  S
C594       O1216   1.269   1_545  A
C594        O604   1.276       .  A
O595       Ni611   1.899       .  S
O595       C1225   1.266       .  A
O596        C601   1.274       .  A
C597        C619   1.469       .  S
C597       O1839   1.273       .  A
O598      Ni1217   1.912       .  S
O598        C600   1.269       .  A
C600        O606   1.276   1_556  A
C601       O1219   1.266       .  A
O603      Ni1859   1.916   1_455  S
O603      Ni1021   1.905       .  S
O603       Ni610   1.919       .  S
Ni605       O609   1.903   1_565  S
Ni605      O1231   1.899       .  S
Ni605      O1421   1.916   1_466  S
Ni605       O811   1.905   1_556  S
O607      Ni1229   1.899       .  S
C608       O1835   1.273       .  A
C608        O609   1.265   1_655  A
Ni611      O1213   1.905       .  S
Ni611      O1851   1.916       .  S
C613        N614   1.358       .  A
C613        N618   1.358       .  A
N614        C615   1.365       .  A
C615        N616   1.365       .  A
C615        C623   1.473       .  S
N616        C617   1.358       .  A
C617        N618   1.358       .  A
C619       N1868   1.351       .  A
C619        N624   1.361       .  A
N620       C1867   1.351       .  A
N620       C1869   1.351       .  A
C621       N1868   1.351       .  A
C621        N622   1.361       .  A
N622        C623   1.365       .  A
C623        N624   1.365       .  A
N625        C629   1.358       .  A
N625        C626   1.358       .  A
N625        C665   1.438       .  S
C626        C627   1.379       .  A
C626        C757   1.474       .  S
C627        C628   1.368       .  A
C627        H630   1.082       .  S
C628        C629   1.383       .  A
C628        H631   1.082       .  S
C629        C652   1.469       .  S
N632        C636   1.358       .  A
N632        C633   1.358       .  A
N632        C725   1.438       .  S
C633        C634   1.379       .  A
C633        C746   1.474       .  S
C634        C635   1.368       .  A
C634        H637   1.082       .  S
C635        C636   1.383       .  A
C635        H638   1.082       .  S
C636        C646   1.469       .  S
O639       Ni645   1.923       .  S
O639        C660   1.272       .  A
O640       Ni663   1.903       .  S
O640        C649   1.265       .  A
O641       Ni645   1.919       .  S
O641       Ni663   1.905       .  S
O641       Ni657   1.916       .  S
O641        H664   0.966       .  S
C642        C737   1.474       .  S
C642        O659   1.266       .  A
C642        O651   1.274       .  A
O643       Ni662   1.923       .  S
O643        C649   1.273       .  A
O644       Ni662   1.912       .  S
O644        C646   1.269       .  A
Ni645       O648   1.948       .  S
Ni645       O650   1.912       .  S
C646        O656   1.276       .  A
O647       Ni663   1.899       .  S
O647        C653   1.266       .  A
O648        C653   1.274       .  A
C649        C671   1.469       .  S
O650        C652   1.269       .  A
O651       Ni662   1.948       .  S
C652        O658   1.276       .  A
C653        C730   1.474       .  S
H654        O655   0.966       .  S
O655       Ni663   1.916       .  S
O655       Ni657   1.905       .  S
O655       Ni662   1.919       .  S
O656       Ni657   1.952       .  S
Ni657       O661   1.903       .  S
Ni657       O659   1.899       .  S
O658       Ni663   1.952       .  S
C660        C721   1.469       .  S
C660        O661   1.265       .  A
C665        N666   1.358       .  A
C665        N670   1.358       .  A
N666        C875   1.365       .  A
C667       N1082   1.365       .  A
C667       N1084   1.365       .  A
C667        C675   1.473       .  S
N668        C875   1.365       .  A
N668        C669   1.358       .  A
C669        N670   1.358       .  A
C669        N677   1.438       .  S
C671        N672   1.351       .  A
C671        N676   1.361       .  A
N672        C673   1.351       .  A
C673        N674   1.361       .  A
C673        C712   1.469       .  S
N674        C675   1.365   1_554  A
C675        N676   1.365   1_556  A
N677        C681   1.358       .  A
N677        C678   1.358       .  A
C678        C679   1.379       .  A
C678        C798   1.474       .  S
C679        C680   1.368       .  A
C680        C681   1.383       .  A
C681        C698   1.469       .  S
N684        C688   1.358       .  A
N684        C685   1.358       .  A
N684        C723   1.438       .  S
C685        C809   1.474       .  S
C686        C687   1.368       .  A
C686        H689   1.082       .  S
C687        H690   1.082   1_545  S
C688        C704   1.469       .  S
O691       Ni697   1.923       .  S
O691        C712   1.273       .  A
O692       Ni715   1.903       .  S
O692        C701   1.265       .  A
O693       Ni697   1.919       .  S
O693       Ni709   1.916       .  S
O693        H716   0.967       .  S
C694        C782   1.474       .  S
C694        O703   1.274       .  A
O695       Ni714   1.923       .  S
O695        C701   1.273       .  A
O696        C698   1.269       .  A
Ni697       O700   1.948       .  S
Ni697       O702   1.912       .  S
C698        O708   1.276       .  A
O699        C705   1.266       .  A
O700        C705   1.274       .  A
C701        C717   1.469       .  S
O703       Ni714   1.948       .  S
C704        O710   1.276       .  A
C705        C789   1.474       .  S
H706        O707   0.966       .  S
O707       Ni715   1.916       .  S
O707       Ni714   1.919       .  S
O708       Ni709   1.951       .  S
Ni709       O713   1.903       .  S
Ni709       O711   1.899   1_565  S
O710       Ni715   1.952       .  S
C712        O713   1.265       .  A
C717        N718   1.361       .  A
C717        N722   1.351       .  A
N718        C719   1.365       .  A
C719        N720   1.365       .  A
C719        C935   1.473       .  S
N720        C721   1.361       .  A
C721        N722   1.351       .  A
C723        N724   1.358       .  A
C723        N728   1.358       .  A
N724        C725   1.358       .  A
C725        N726   1.358       .  A
N726        C727   1.365       .  A
C727        N728   1.365       .  A
C727       C1135   1.473       .  S
N729        C733   1.358       .  A
N729        C730   1.358       .  A
N729        C775   1.438       .  S
C730        C731   1.379       .  A
C731        C732   1.368   1_554  A
C731        H734   1.082       .  S
C732        C733   1.383   1_556  A
C732        H735   1.082       .  S
C733        C756   1.469       .  S
N736        C740   1.358       .  A
N736        C737   1.358       .  A
N736        C825   1.438       .  S
C737        C738   1.379       .  A
C738        C739   1.368       .  A
C738        H741   1.082       .  S
C739        C740   1.383       .  A
C739        H742   1.082       .  S
C740        C750   1.469       .  S
O743       Ni749   1.923       .  S
O743       C2012   1.273       .  A
O744       Ni767   1.903       .  S
O744        C753   1.265   1_455  A
O745       Ni749   1.919       .  S
O745      Ni1183   1.905   1_554  S
O745      Ni2009   1.916   1_455  S
O745       H1184   0.967   1_455  S
C746        O763   1.266       .  A
C746        O755   1.274       .  A
O747       Ni766   1.923       .  S
O747       C2001   1.272       .  A
O748       Ni766   1.912       .  S
O748        C750   1.269       .  A
Ni749      O1168   1.948   1_554  S
Ni749       O754   1.912       .  S
C750        O760   1.276       .  A
O751       Ni767   1.899       .  S
O751        C757   1.266       .  A
O752       Ni957   1.948       .  S
O752        C757   1.274       .  A
C753        C771   1.469       .  S
C753       O1995   1.272       .  A
O754        C756   1.269       .  A
O755      Ni1182   1.948   1_554  S
C756        O762   1.276   1_554  A
H758        O759   0.966       .  S
O759      Ni2431   1.916   1_554  S
O759       Ni761   1.905       .  S
O759      Ni1182   1.919   1_554  S
O760       Ni969   1.952       .  S
Ni761      O1176   1.952       .  S
Ni761       O765   1.903       .  S
Ni761       O763   1.899       .  S
Ni761      O1993   1.916       .  S
O762      Ni1183   1.952       .  S
C764        C829   1.469       .  S
C764       O1991   1.273       .  A
C764        O765   1.265       .  A
Ni766       O963   1.948       .  S
Ni766       O967   1.919       .  S
Ni767       O970   1.952       .  S
Ni767       O953   1.905       .  S
Ni767      O2215   1.916   1_455  S
H768        O953   0.967   1_655  S
C769       N2018   1.351       .  A
C769        N774   1.361   1_655  A
C769        C816   1.469       .  S
N770       C2017   1.351       .  A
N770       C2019   1.351       .  A
C771       N2018   1.351       .  A
C771        N772   1.361   1_655  A
N772        C773   1.365       .  A
C773        N774   1.365       .  A
C773        C779   1.473       .  S
C775        N776   1.358       .  A
C775        N780   1.358       .  A
N776        C777   1.358       .  A
C777        N778   1.358       .  A
C777        N781   1.438       .  S
N778        C779   1.365       .  A
C779        N780   1.365       .  A
N781        C785   1.358       .  A
N781        C782   1.358       .  A
C783        C784   1.368   1_554  A
C783        H786   1.082       .  S
C784        H787   1.082   1_545  S
C785        C802   1.469       .  S
N788        C792   1.358       .  A
N788        C789   1.358       .  A
N788        C821   1.438       .  S
C789        C790   1.379       .  A
C790        C791   1.368       .  A
C791        C792   1.383       .  A
C792        C808   1.469       .  S
O795       Ni801   1.923       .  S
O795       C2064   1.273       .  A
O796       Ni819   1.903       .  S
O796        C805   1.265       .  A
O797      Ni1217   1.919   1_554  S
O797      Ni2477   1.916   1_554  S
O797        H820   0.967       .  S
C798        O815   1.266       .  A
C798        O807   1.274       .  A
O799       Ni818   1.923       .  S
O799       C2053   1.273       .  A
O800       Ni818   1.912       .  S
Ni801      O1012   1.948       .  S
Ni801      O1005   1.919       .  S
C802        O812   1.276   1_554  A
O803       Ni819   1.899   1_545  S
O804      Ni1217   1.948   1_554  S
O804        C809   1.274       .  A
C805        C827   1.469       .  S
C805       O2047   1.273       .  A
O806        C808   1.269       .  A
O807      Ni1026   1.948       .  S
C808        O814   1.276       .  A
H810       O1019   0.966   1_655  S
O811      Ni2067   1.916   1_455  S
O811       Ni818   1.919       .  S
O811       H1226   0.966   1_455  S
O812      Ni1229   1.952       .  S
Ni813      O1020   1.952       .  S
Ni813       O817   1.903       .  S
Ni813      O2253   1.916   1_455  S
O814      Ni1027   1.952       .  S
C816       O2043   1.273       .  A
C816        O817   1.265   1_655  A
Ni818      O1223   1.948   1_554  S
Ni819      O1230   1.952       .  S
Ni819      O2059   1.916       .  S
C821        N822   1.358       .  A
C821        N826   1.358       .  A
N822        C823   1.365       .  A
C823        N824   1.365       .  A
C823        C831   1.473       .  S
N824        C825   1.358       .  A
C825        N826   1.358       .  A
C827       N2076   1.351       .  A
C827        N832   1.361       .  A
N828       C2075   1.351       .  A
N828       C2077   1.351       .  A
C829       N2076   1.351       .  A
C829        N830   1.361       .  A
N830        C831   1.365       .  A
C831        N832   1.365       .  A
N833        C837   1.358       .  A
N833        C834   1.358       .  A
N833        C873   1.438       .  S
C834        C835   1.379       .  A
C834        C965   1.474       .  S
C835        C836   1.368       .  A
C835        H838   1.082       .  S
C836        C837   1.383       .  A
C836        H839   1.082       .  S
C837        C860   1.469       .  S
N840        C844   1.358       .  A
N840        C841   1.358       .  A
N840        C933   1.438       .  S
C841        C842   1.379       .  A
C841        C954   1.474       .  S
C842        C843   1.368       .  A
C842        H845   1.082       .  S
C843        C844   1.383       .  A
C843        H846   1.082       .  S
C844        C854   1.469       .  S
O847       Ni853   1.923       .  S
O847        C868   1.272       .  A
O848       Ni871   1.903       .  S
O848        C857   1.265       .  A
O849       Ni853   1.919       .  S
O849       Ni871   1.905       .  S
O849       Ni865   1.916       .  S
O849        H872   0.966       .  S
C850        C945   1.474       .  S
C850        O867   1.266       .  A
C850        O859   1.274       .  A
O851       Ni870   1.923       .  S
O851        C857   1.273       .  A
O852       Ni870   1.912       .  S
O852        C854   1.269       .  A
Ni853       O856   1.948       .  S
Ni853       O858   1.912       .  S
C854        O864   1.276       .  A
O855       Ni871   1.899       .  S
O855        C861   1.266       .  A
O856        C861   1.274       .  A
C857        C879   1.469       .  S
O858        C860   1.269       .  A
O859       Ni870   1.948       .  S
C860        O866   1.276       .  A
C861        C938   1.474       .  S
H862        O863   0.966       .  S
O863       Ni871   1.916       .  S
O863       Ni865   1.905       .  S
O863       Ni870   1.919       .  S
O864       Ni865   1.952       .  S
Ni865       O869   1.903       .  S
Ni865       O867   1.899       .  S
O866       Ni871   1.952       .  S
C868        C929   1.469       .  S
C868        O869   1.265       .  A
C873        N874   1.358       .  A
C873        N878   1.358       .  A
N874       C1083   1.365       .  A
C875        C883   1.473       .  S
N876       C1083   1.365       .  A
N876        C877   1.358       .  A
C877        N878   1.358       .  A
C877        N885   1.438       .  S
C879        N880   1.351       .  A
C879        N884   1.361       .  A
N880        C881   1.351       .  A
C881        N882   1.361       .  A
C881        C920   1.469       .  S
N882        C883   1.365       .  A
C883        N884   1.365       .  A
N885        C889   1.358       .  A
N885        C886   1.358       .  A
C886        C887   1.379       .  A
C886       C1006   1.474       .  S
C887        C888   1.368       .  A
C888        C889   1.383       .  A
C889        C906   1.469       .  S
N892        C896   1.358       .  A
N892        C893   1.358       .  A
N892        C931   1.438       .  S
C893       C1017   1.474       .  S
C894        C895   1.368       .  A
C894        H897   1.082       .  S
C895        H898   1.082   1_545  S
C896        C912   1.469       .  S
O899       Ni905   1.923       .  S
O899        C920   1.273       .  A
O900       Ni923   1.903       .  S
O900        C909   1.265       .  A
O901       Ni905   1.919       .  S
O901       Ni917   1.916       .  S
O901        H924   0.967       .  S
C902        C990   1.474       .  S
C902        O911   1.274       .  A
O903       Ni922   1.923       .  S
O903        C909   1.273       .  A
O904        C906   1.269       .  A
Ni905       O908   1.948       .  S
Ni905       O910   1.912       .  S
C906        O916   1.276       .  A
O907        C913   1.266       .  A
O908        C913   1.274       .  A
C909        C925   1.469       .  S
O911       Ni922   1.948       .  S
C912        O918   1.276       .  A
C913        C997   1.474       .  S
H914        O915   0.966       .  S
O915       Ni923   1.916       .  S
O915       Ni922   1.919       .  S
O916       Ni917   1.951       .  S
Ni917       O921   1.903       .  S
Ni917       O919   1.899   1_565  S
O918       Ni923   1.952       .  S
C920        O921   1.265       .  A
C925        N926   1.361       .  A
C925        N930   1.351       .  A
N926        C927   1.365       .  A
C927        N928   1.365       .  A
C927       C1143   1.473       .  S
N928        C929   1.361       .  A
C929        N930   1.351       .  A
C931        N932   1.358       .  A
C931        N936   1.358       .  A
N932        C933   1.358       .  A
C933        N934   1.358       .  A
N934        C935   1.365       .  A
C935        N936   1.365       .  A
N937        C941   1.358       .  A
N937        C938   1.358       .  A
N937        C983   1.438       .  S
C938        C939   1.379       .  A
C939        C940   1.368       .  A
C939        H942   1.082       .  S
C940        C941   1.383       .  A
C940        H943   1.082       .  S
C941        C964   1.469       .  S
N944        C948   1.358       .  A
N944        C945   1.358       .  A
N944       C1033   1.438       .  S
C945        C946   1.379       .  A
C946        C947   1.368       .  A
C946        H949   1.082       .  S
C947        C948   1.383       .  A
C947        H950   1.082       .  S
C948        C958   1.469       .  S
O951       Ni957   1.923       .  S
O951       C2220   1.273       .  A
O952       Ni975   1.903       .  S
O952        C961   1.265   1_455  A
O953       Ni957   1.919       .  S
O953      Ni2217   1.916   1_455  S
C954        O971   1.266       .  A
C954        O963   1.274       .  A
O955       Ni974   1.923       .  S
O955       C2209   1.272       .  A
O956       Ni974   1.912       .  S
O956        C958   1.269       .  A
Ni957       O962   1.912       .  S
C958        O968   1.276       .  A
O959       Ni975   1.899       .  S
O959        C965   1.266       .  A
O960      Ni1165   1.948       .  S
O960        C965   1.274       .  A
C961        C979   1.469       .  S
C961       O2203   1.272       .  A
O962        C964   1.269       .  A
C964        O970   1.276       .  A
H966        O967   0.966       .  S
O967      Ni2015   1.916       .  S
O967       Ni969   1.905       .  S
O968      Ni1177   1.952       .  S
Ni969       O973   1.903       .  S
Ni969       O971   1.899       .  S
Ni969      O2201   1.916       .  S
C972       C1037   1.469       .  S
C972       O2199   1.273       .  A
C972        O973   1.265       .  A
Ni974      O1171   1.948       .  S
Ni974      O1175   1.919       .  S
Ni975      O1178   1.952       .  S
Ni975      O1161   1.905       .  S
Ni975      O2423   1.916   1_455  S
H976       O1161   0.967   1_655  S
C977       N2226   1.351       .  A
C977        N982   1.361   1_655  A
C977       C1024   1.469       .  S
N978       C2225   1.351       .  A
N978       C2227   1.351       .  A
C979       N2226   1.351       .  A
C979        N980   1.361   1_655  A
N980        C981   1.365       .  A
C981        N982   1.365       .  A
C981        C987   1.473       .  S
C983        N984   1.358       .  A
C983        N988   1.358       .  A
N984        C985   1.358       .  A
C985        N986   1.358       .  A
C985        N989   1.438       .  S
N986        C987   1.365       .  A
C987        N988   1.365       .  A
N989        C993   1.358       .  A
N989        C990   1.358       .  A
C991        C992   1.368       .  A
C991        H994   1.082       .  S
C992        H995   1.082   1_545  S
C993       C1010   1.469       .  S
N996       C1000   1.358       .  A
N996        C997   1.358       .  A
N996       C1029   1.438       .  S
C997        C998   1.379       .  A
C998        C999   1.368       .  A
C999       C1000   1.383       .  A
C1000      C1016   1.469       .  S
O1003     Ni1009   1.923       .  S
O1003      C2272   1.273       .  A
O1004     Ni1027   1.903       .  S
O1004      C1013   1.265       .  A
O1005     Ni2061   1.916       .  S
O1005      H1028   0.967       .  S
C1006      O1023   1.266       .  A
C1006      O1015   1.274       .  A
O1007     Ni1026   1.923       .  S
O1007      C2261   1.273       .  A
O1008     Ni1026   1.912       .  S
Ni1009     O1220   1.948       .  S
Ni1009     O1213   1.919       .  S
C1010      O1020   1.276       .  A
O1011     Ni1027   1.899   1_545  S
O1012      C1017   1.274       .  A
C1013      C1035   1.469       .  S
C1013      O2255   1.273       .  A
O1014      C1016   1.269       .  A
O1015     Ni1234   1.948       .  S
C1016      O1022   1.276       .  A
H1018      O1227   0.966   1_655  S
O1019     Ni2275   1.916   1_455  S
O1019     Ni1026   1.919       .  S
Ni1021     O1228   1.952       .  S
Ni1021     O1025   1.903       .  S
Ni1021     O2461   1.916   1_455  S
O1022     Ni1235   1.952       .  S
C1024      O2251   1.273       .  A
C1024      O1025   1.265   1_655  A
Ni1027     O2267   1.916       .  S
C1029      N1030   1.358       .  A
C1029      N1034   1.358       .  A
N1030      C1031   1.365       .  A
C1031      N1032   1.365       .  A
C1031      C1039   1.473       .  S
N1032      C1033   1.358       .  A
C1033      N1034   1.358       .  A
C1035      N2284   1.351       .  A
C1035      N1040   1.361       .  A
N1036      C2283   1.351       .  A
N1036      C2285   1.351       .  A
C1037      N2284   1.351       .  A
C1037      N1038   1.361       .  A
N1038      C1039   1.365       .  A
C1039      N1040   1.365       .  A
N1041      C1045   1.358       .  A
N1041      C1042   1.358       .  A
N1041      C1081   1.438       .  S
C1042      C1043   1.379       .  A
C1042      C1173   1.474       .  S
C1043      C1044   1.368       .  A
C1043      H1046   1.082       .  S
C1044      C1045   1.383       .  A
C1044      H1047   1.082       .  S
C1045      C1068   1.469       .  S
N1048      C1052   1.358       .  A
N1048      C1049   1.358       .  A
N1048      C1141   1.438       .  S
C1049      C1050   1.379       .  A
C1049      C1162   1.474       .  S
C1050      C1051   1.368       .  A
C1050      H1053   1.082       .  S
C1051      C1052   1.383       .  A
C1051      H1054   1.082       .  S
C1052      C1062   1.469       .  S
O1055     Ni1061   1.923       .  S
O1055      C1076   1.272       .  A
O1056     Ni1079   1.903       .  S
O1056      C1065   1.265       .  A
O1057     Ni1061   1.919       .  S
O1057     Ni1079   1.905       .  S
O1057     Ni1073   1.916       .  S
O1057      H1080   0.966       .  S
C1058      C1153   1.474       .  S
C1058      O1075   1.266       .  A
C1058      O1067   1.274       .  A
O1059     Ni1078   1.923       .  S
O1059      C1065   1.273       .  A
O1060     Ni1078   1.912       .  S
O1060      C1062   1.269       .  A
Ni1061     O1064   1.948       .  S
Ni1061     O1066   1.912       .  S
C1062      O1072   1.276       .  A
O1063     Ni1079   1.899       .  S
O1063      C1069   1.266       .  A
O1064      C1069   1.274       .  A
C1065      C1087   1.469       .  S
O1066      C1068   1.269       .  A
O1067     Ni1078   1.948       .  S
C1068      O1074   1.276       .  A
C1069      C1146   1.474       .  S
H1070      O1071   0.966       .  S
O1071     Ni1079   1.916       .  S
O1071     Ni1073   1.905       .  S
O1071     Ni1078   1.919       .  S
O1072     Ni1073   1.952       .  S
Ni1073     O1077   1.903       .  S
Ni1073     O1075   1.899       .  S
O1074     Ni1079   1.952       .  S
C1076      C1137   1.469       .  S
C1076      O1077   1.265       .  A
C1081      N1082   1.358       .  A
C1081      N1086   1.358       .  A
C1083      C1091   1.473       .  S
N1084      C1085   1.358       .  A
C1085      N1086   1.358       .  A
C1085      N1093   1.438       .  S
C1087      N1088   1.351       .  A
C1087      N1092   1.361       .  A
N1088      C1089   1.351       .  A
C1089      N1090   1.361       .  A
C1089      C1128   1.469       .  S
N1090      C1091   1.365       .  A
C1091      N1092   1.365       .  A
N1093      C1097   1.358       .  A
N1093      C1094   1.358       .  A
C1094      C1095   1.379       .  A
C1094      C1214   1.474       .  S
C1095      C1096   1.368       .  A
C1096      C1097   1.383       .  A
C1097      C1114   1.469       .  S
N1100      C1104   1.358       .  A
N1100      C1101   1.358       .  A
N1100      C1139   1.438       .  S
C1101      C1225   1.474       .  S
C1102      C1103   1.368       .  A
C1102      H1105   1.082       .  S
C1103      H1106   1.082   1_545  S
C1104      C1120   1.469       .  S
O1107     Ni1113   1.923       .  S
O1107      C1128   1.273       .  A
O1108     Ni1131   1.903       .  S
O1108      C1117   1.265       .  A
O1109     Ni1113   1.919       .  S
O1109     Ni1125   1.916       .  S
O1109      H1132   0.967       .  S
C1110      C1198   1.474       .  S
C1110      O1119   1.274       .  A
O1111     Ni1130   1.923       .  S
O1111      C1117   1.273       .  A
O1112      C1114   1.269       .  A
Ni1113     O1116   1.948       .  S
Ni1113     O1118   1.912       .  S
C1114      O1124   1.276       .  A
O1115      C1121   1.266       .  A
O1116      C1121   1.274       .  A
C1117      C1133   1.469       .  S
O1119     Ni1130   1.948       .  S
C1120      O1126   1.276       .  A
C1121      C1205   1.474       .  S
H1122      O1123   0.966       .  S
O1123     Ni1131   1.916       .  S
O1123     Ni1130   1.919       .  S
O1124     Ni1125   1.951       .  S
Ni1125     O1129   1.903       .  S
Ni1125     O1127   1.899   1_565  S
O1126     Ni1131   1.952       .  S
C1128      O1129   1.265       .  A
C1133      N1134   1.361   1_556  A
C1133      N1138   1.351       .  A
N1134      C1135   1.365       .  A
C1135      N1136   1.365       .  A
N1136      C1137   1.361   1_554  A
C1137      N1138   1.351       .  A
C1139      N1140   1.358       .  A
C1139      N1144   1.358       .  A
N1140      C1141   1.358       .  A
C1141      N1142   1.358       .  A
N1142      C1143   1.365       .  A
C1143      N1144   1.365       .  A
N1145      C1149   1.358       .  A
N1145      C1146   1.358       .  A
N1145      C1191   1.438       .  S
C1146      C1147   1.379       .  A
C1147      C1148   1.368       .  A
C1147      H1150   1.082       .  S
C1148      C1149   1.383       .  A
C1148      H1151   1.082       .  S
C1149      C1172   1.469       .  S
N1152      C1156   1.358       .  A
N1152      C1153   1.358       .  A
N1152      C1241   1.438       .  S
C1153      C1154   1.379   1_556  A
C1154      C1155   1.368       .  A
C1154      H1157   1.082       .  S
C1155      C1156   1.383   1_554  A
C1155      H1158   1.082       .  S
C1156      C1166   1.469       .  S
O1159     Ni1165   1.923       .  S
O1159      C2428   1.273       .  A
O1160     Ni1183   1.903       .  S
O1160      C1169   1.265   1_455  A
O1161     Ni1165   1.919       .  S
O1161     Ni2425   1.916   1_455  S
C1162      O1179   1.266       .  A
C1162      O1171   1.274       .  A
O1163     Ni1182   1.923       .  S
O1163      C2417   1.272       .  A
O1164     Ni1182   1.912       .  S
O1164      C1166   1.269       .  A
Ni1165     O1170   1.912       .  S
C1166      O1176   1.276   1_556  A
O1167     Ni1183   1.899       .  S
O1167      C1173   1.266       .  A
O1168      C1173   1.274       .  A
C1169      C1187   1.469       .  S
C1169      O2411   1.272       .  A
O1170      C1172   1.269       .  A
C1172      O1178   1.276       .  A
H1174      O1175   0.966       .  S
O1175     Ni2223   1.916       .  S
O1175     Ni1177   1.905       .  S
Ni1177     O1181   1.903       .  S
Ni1177     O1179   1.899       .  S
Ni1177     O2409   1.916       .  S
C1180      C1245   1.469       .  S
C1180      O2407   1.273       .  A
C1180      O1181   1.265       .  A
Ni1183     O2007   1.916   1_456  S
C1185      N2434   1.351       .  A
C1185      N1190   1.361   1_655  A
C1185      C1232   1.469       .  S
N1186      C2433   1.351       .  A
N1186      C2435   1.351       .  A
C1187      N2434   1.351       .  A
C1187      N1188   1.361   1_655  A
N1188      C1189   1.365       .  A
C1189      N1190   1.365       .  A
C1189      C1195   1.473       .  S
C1191      N1192   1.358       .  A
C1191      N1196   1.358       .  A
N1192      C1193   1.358       .  A
C1193      N1194   1.358       .  A
C1193      N1197   1.438       .  S
N1194      C1195   1.365       .  A
C1195      N1196   1.365       .  A
N1197      C1201   1.358       .  A
N1197      C1198   1.358       .  A
C1199      C1200   1.368       .  A
C1199      H1202   1.082       .  S
C1200      H1203   1.082   1_545  S
C1201      C1218   1.469       .  S
N1204      C1208   1.358       .  A
N1204      C1205   1.358       .  A
N1204      C1237   1.438       .  S
C1205      C1206   1.379   1_556  A
C1206      C1207   1.368       .  A
C1207      C1208   1.383   1_554  A
C1208      C1224   1.469       .  S
O1211     Ni1217   1.923       .  S
O1211      C2480   1.273       .  A
O1212     Ni1235   1.903       .  S
O1212      C1221   1.265       .  A
O1213     Ni2269   1.916       .  S
O1213      H1236   0.967       .  S
C1214      O1231   1.266       .  A
C1214      O1223   1.274       .  A
O1215     Ni1234   1.923       .  S
O1215      C2469   1.273       .  A
O1216     Ni1234   1.912       .  S
C1218      O1228   1.276       .  A
O1219     Ni1235   1.899   1_545  S
O1220      C1225   1.274       .  A
C1221      C1243   1.469       .  S
C1221      O2463   1.273       .  A
O1222      C1224   1.269       .  A
C1224      O1230   1.276   1_556  A
O1227     Ni2483   1.916   1_455  S
O1227     Ni1234   1.919       .  S
Ni1229     O1233   1.903       .  S
Ni1229     O2045   1.916   1_456  S
C1232      O2459   1.273       .  A
C1232      O1233   1.265   1_655  A
Ni1235     O2475   1.916       .  S
C1237      N1238   1.358       .  A
C1237      N1242   1.358       .  A
N1238      C1239   1.365       .  A
C1239      N1240   1.365       .  A
C1239      C1247   1.473       .  S
N1240      C1241   1.358       .  A
C1241      N1242   1.358       .  A
C1243      N2492   1.351       .  A
C1243      N1248   1.361       .  A
N1244      C2491   1.351       .  A
N1244      C2493   1.351       .  A
C1245      N2492   1.351       .  A
C1245      N1246   1.361       .  A
N1246      C1247   1.365       .  A
C1247      N1248   1.365       .  A
N1249      C1253   1.358       .  A
N1249      C1250   1.358       .  A
N1249      C1289   1.438       .  S
C1250      C1251   1.379       .  A
C1250      C1381   1.474       .  S
C1251      C1252   1.368       .  A
C1251      H1254   1.082       .  S
C1252      C1253   1.383       .  A
C1252      H1255   1.082       .  S
C1253      C1276   1.469       .  S
N1256      C1260   1.358       .  A
N1256      C1257   1.358       .  A
N1256      C1349   1.438       .  S
C1257      C1258   1.379       .  A
C1257      C1370   1.474       .  S
C1258      C1259   1.368       .  A
C1258      H1261   1.082       .  S
C1259      C1260   1.383       .  A
C1259      H1262   1.082       .  S
C1260      C1270   1.469       .  S
O1263     Ni1269   1.923       .  S
O1263      C1284   1.272       .  A
O1264     Ni1287   1.903       .  S
O1264      C1273   1.265       .  A
O1265     Ni1269   1.919       .  S
O1265     Ni1287   1.905       .  S
O1265     Ni1281   1.916       .  S
O1265      H1288   0.966       .  S
C1266      C1361   1.474       .  S
C1266      O1283   1.266       .  A
C1266      O1275   1.274       .  A
O1267     Ni1286   1.923       .  S
O1267      C1273   1.273       .  A
O1268     Ni1286   1.912       .  S
O1268      C1270   1.269       .  A
Ni1269     O1272   1.948       .  S
Ni1269     O1274   1.912       .  S
C1270      O1280   1.276       .  A
O1271     Ni1287   1.899       .  S
O1271      C1277   1.266       .  A
O1272      C1277   1.274       .  A
C1273      C1295   1.469       .  S
O1274      C1276   1.269       .  A
O1275     Ni1286   1.948       .  S
C1276      O1282   1.276       .  A
C1277      C1354   1.474       .  S
H1278      O1279   0.966       .  S
O1279     Ni1287   1.916       .  S
O1279     Ni1281   1.905       .  S
O1279     Ni1286   1.919       .  S
O1280     Ni1281   1.952       .  S
Ni1281     O1285   1.903       .  S
Ni1281     O1283   1.899       .  S
O1282     Ni1287   1.952       .  S
C1284      C1345   1.469       .  S
C1284      O1285   1.265       .  A
C1289      N1290   1.358       .  A
C1289      N1294   1.358       .  A
N1290      C1499   1.365       .  A
C1291      N1706   1.365       .  A
C1291      N1708   1.365       .  A
C1291      C1299   1.473       .  S
N1292      C1499   1.365       .  A
N1292      C1293   1.358       .  A
C1293      N1294   1.358       .  A
C1293      N1301   1.438       .  S
C1295      N1296   1.351       .  A
C1295      N1300   1.361       .  A
N1296      C1297   1.351       .  A
C1297      N1298   1.361       .  A
C1297      C1336   1.469       .  S
N1298      C1299   1.365   1_554  A
C1299      N1300   1.365   1_556  A
N1301      C1305   1.358       .  A
N1301      C1302   1.358       .  A
C1302      C1303   1.379       .  A
C1302      C1422   1.474       .  S
C1303      C1304   1.368       .  A
C1303      H1930   1.082       .  S
C1304      C1305   1.383       .  A
C1304      H1931   1.082       .  S
C1305      C1322   1.469       .  S
H1306      C1927   1.082       .  S
H1307      C1928   1.082       .  S
N1308      C1312   1.358       .  A
N1308      C1309   1.358       .  A
N1308      C1347   1.438       .  S
C1309      C1934   1.379       .  A
C1309      C1433   1.474       .  S
C1310      C1933   1.379       .  A
C1310      C1311   1.368       .  A
C1310      H1313   1.082       .  S
C1311      C1936   1.383       .  A
C1311      H1314   1.082       .  S
C1312      C1935   1.383       .  A
C1312      C1328   1.469       .  S
O1315     Ni1321   1.923       .  S
O1315      C1336   1.273       .  A
O1316     Ni1339   1.903   1_545  S
O1316      C1325   1.265       .  A
O1317     Ni1321   1.919       .  S
O1317     Ni1963   1.905       .  S
O1317     Ni1333   1.916       .  S
O1317      H1340   0.967       .  S
C1318      C1406   1.474       .  S
C1318      O1959   1.266       .  A
C1318      O1327   1.274       .  A
O1319     Ni1338   1.923       .  S
O1319      C1325   1.273       .  A
O1320     Ni1962   1.912       .  S
O1320      C1322   1.269       .  A
Ni1321     O1324   1.948       .  S
Ni1321     O1326   1.912       .  S
C1322      O1332   1.276       .  A
O1323     Ni1963   1.899       .  S
O1323      C1329   1.266       .  A
O1324      C1329   1.274       .  A
C1325      C1341   1.469       .  S
O1326      C1952   1.269       .  A
O1327     Ni1338   1.948       .  S
C1328      O1950   1.269   1_545  A
C1328      O1334   1.276       .  A
C1329      C1413   1.474       .  S
H1330      O1331   0.966       .  S
O1331     Ni1339   1.916   1_545  S
O1331     Ni1957   1.905   1_545  S
O1331     Ni1338   1.919       .  S
O1332     Ni1333   1.951       .  S
Ni1333     O1337   1.903       .  S
Ni1333     O1335   1.899       .  S
Ni1333     O1955   1.905       .  S
O1334     Ni1339   1.952   1_545  S
O1335      C1942   1.266       .  A
C1336      O1337   1.265       .  A
Ni1338     O1944   1.912   1_545  S
Ni1339     O1947   1.899       .  S
Ni1339     O1941   1.905       .  S
C1341      N1342   1.361       .  A
C1341      N1346   1.351       .  A
N1342      C1343   1.365       .  A
C1343      N1344   1.365       .  A
C1343      C1559   1.473       .  S
N1344      C1345   1.361       .  A
C1345      N1346   1.351       .  A
C1347      N1348   1.358       .  A
C1347      N1352   1.358       .  A
N1348      C1349   1.358       .  A
C1349      N1350   1.358       .  A
N1350      C1351   1.365       .  A
C1351      N1352   1.365       .  A
C1351      C1759   1.473       .  S
N1353      C1357   1.358       .  A
N1353      C1354   1.358       .  A
N1353      C1399   1.438       .  S
C1354      C1355   1.379       .  A
C1355      C1356   1.368   1_554  A
C1355      H1358   1.082       .  S
C1356      C1357   1.383   1_556  A
C1356      H1359   1.082       .  S
C1357      C1380   1.469       .  S
N1360      C1364   1.358       .  A
N1360      C1361   1.358       .  A
N1360      C1449   1.438       .  S
C1361      C1362   1.379       .  A
C1362      C1363   1.368       .  A
C1362      H1365   1.082       .  S
C1363      C1364   1.383       .  A
C1363      H1366   1.082       .  S
C1364      C1374   1.469       .  S
O1367     Ni1373   1.923       .  S
O1368     Ni1391   1.903       .  S
O1368      C1377   1.265       .  A
O1369     Ni1373   1.919       .  S
O1369     Ni1807   1.905   1_554  S
O1369      H1808   0.967       .  S
C1370      O1387   1.266       .  A
C1370      O1379   1.274       .  A
O1371     Ni1390   1.923       .  S
O1372     Ni1390   1.912       .  S
O1372      C1374   1.269       .  A
Ni1373     O1792   1.948   1_554  S
Ni1373     O1378   1.912       .  S
C1374      O1384   1.276       .  A
O1375     Ni1391   1.899       .  S
O1375      C1381   1.266       .  A
O1376     Ni1581   1.948       .  S
O1376      C1381   1.274       .  A
C1377      C1395   1.469       .  S
O1378      C1380   1.269       .  A
O1379     Ni1806   1.948   1_554  S
C1380      O1386   1.276   1_554  A
H1382      O1383   0.966   1_455  S
O1383     Ni1385   1.905       .  S
O1383     Ni1806   1.919   1_554  S
O1384     Ni1593   1.952       .  S
Ni1385     O1800   1.952       .  S
Ni1385     O1389   1.903       .  S
Ni1385     O1387   1.899       .  S
O1386     Ni1807   1.952       .  S
C1388      C1453   1.469       .  S
C1388      O1389   1.265   1_455  A
Ni1390     O1587   1.948       .  S
Ni1390     O1591   1.919       .  S
Ni1391     O1594   1.952       .  S
Ni1391     O1577   1.905       .  S
H1392      O1577   0.967       .  S
C1393      N1398   1.361       .  A
C1393      C1440   1.469       .  S
C1395      N1396   1.361       .  A
N1396      C1397   1.365       .  A
C1397      N1398   1.365       .  A
C1397      C1403   1.473       .  S
C1399      N1400   1.358       .  A
C1399      N1404   1.358       .  A
N1400      C1401   1.358       .  A
C1401      N1402   1.358       .  A
C1401      N1405   1.438       .  S
N1402      C1403   1.365       .  A
C1403      N1404   1.365       .  A
N1405      C1409   1.358       .  A
N1405      C1406   1.358       .  A
C1406      C2031   1.379       .  A
C1407      C2030   1.379       .  A
C1407      C1408   1.368   1_554  A
C1407      H1410   1.082       .  S
C1408      C2033   1.383   1_556  A
C1408      H1411   1.082       .  S
C1409      C2032   1.383   1_554  A
C1409      C1426   1.469       .  S
N1412      C1416   1.358       .  A
N1412      C1413   1.358       .  A
N1412      C1445   1.438       .  S
C1413      C1414   1.379       .  A
C1414      C1415   1.368       .  A
C1414      H2041   1.082       .  S
C1415      C1416   1.383       .  A
C1415      H2042   1.082       .  S
C1416      C1432   1.469       .  S
H1417      C2038   1.082       .  S
H1418      C2039   1.082       .  S
O1419     Ni1425   1.923       .  S
O1420     Ni1443   1.903       .  S
O1420      C1429   1.265   1_655  A
O1421     Ni1841   1.919   1_554  S
O1421     Ni2067   1.905   1_545  S
O1421      H1444   0.967   1_655  S
C1422      O1439   1.266       .  A
C1422      O1431   1.274       .  A
O1423     Ni1442   1.923       .  S
O1424     Ni1442   1.912       .  S
O1424      C2050   1.269       .  A
Ni1425     O1636   1.948       .  S
Ni1425     O2054   1.912   1_545  S
Ni1425     O1629   1.919       .  S
C1426      O2048   1.269   1_545  A
C1426      O1436   1.276   1_554  A
O1427     Ni1443   1.899       .  S
O1427      C2057   1.266       .  A
O1428     Ni1841   1.948   1_554  S
O1428      C1433   1.274       .  A
C1429      C1451   1.469       .  S
O1430     Ni2049   1.912       .  S
O1430      C1432   1.269       .  A
O1431     Ni1650   1.948       .  S
C1432      O1438   1.276       .  A
C1433      O2051   1.266       .  A
H1434      O1643   0.966       .  S
O1435     Ni2477   1.905   1_554  S
O1435     Ni1442   1.919       .  S
O1435      H1850   0.966       .  S
O1436     Ni1853   1.952   1_545  S
Ni1437     O1644   1.952   1_565  S
Ni1437     O1441   1.903   1_565  S
Ni1437     O2063   1.899       .  S
Ni1437     O2267   1.905       .  S
O1438     Ni1651   1.952       .  S
O1439     Ni2061   1.899       .  S
C1440      O1441   1.265       .  A
Ni1442     O1847   1.948   1_554  S
Ni1443     O1854   1.952       .  S
Ni1443     O2045   1.905       .  S
C1445      N1446   1.358       .  A
C1445      N1450   1.358       .  A
N1446      C1447   1.365       .  A
C1447      N1448   1.365       .  A
C1447      C1455   1.473       .  S
N1448      C1449   1.358       .  A
C1449      N1450   1.358       .  A
C1451      N1456   1.361   1_455  A
C1453      N1454   1.361   1_455  A
N1454      C1455   1.365       .  A
C1455      N1456   1.365       .  A
N1457      C1461   1.358       .  A
N1457      C1458   1.358       .  A
N1457      C1497   1.438       .  S
C1458      C1459   1.379       .  A
C1458      C1589   1.474       .  S
C1459      C1460   1.368       .  A
C1459      H1462   1.082       .  S
C1460      C1461   1.383       .  A
C1460      H1463   1.082       .  S
C1461      C1484   1.469       .  S
N1464      C1468   1.358       .  A
N1464      C1465   1.358       .  A
N1464      C1557   1.438       .  S
C1465      C1466   1.379       .  A
C1465      C1578   1.474       .  S
C1466      C1467   1.368       .  A
C1466      H1469   1.082       .  S
C1467      C1468   1.383       .  A
C1467      H1470   1.082       .  S
C1468      C1478   1.469       .  S
O1471     Ni1477   1.923       .  S
O1471      C1492   1.272       .  A
O1472     Ni1495   1.903       .  S
O1472      C1481   1.265       .  A
O1473     Ni1477   1.919       .  S
O1473     Ni1495   1.905       .  S
O1473     Ni1489   1.916       .  S
O1473      H1496   0.966       .  S
C1474      C1569   1.474       .  S
C1474      O1491   1.266       .  A
C1474      O1483   1.274       .  A
O1475     Ni1494   1.923       .  S
O1475      C1481   1.273       .  A
O1476     Ni1494   1.912       .  S
O1476      C1478   1.269       .  A
Ni1477     O1480   1.948       .  S
Ni1477     O1482   1.912       .  S
C1478      O1488   1.276       .  A
O1479     Ni1495   1.899       .  S
O1479      C1485   1.266       .  A
O1480      C1485   1.274       .  A
C1481      C1503   1.469       .  S
O1482      C1484   1.269       .  A
O1483     Ni1494   1.948       .  S
C1484      O1490   1.276       .  A
C1485      C1562   1.474       .  S
H1486      O1487   0.966       .  S
O1487     Ni1495   1.916       .  S
O1487     Ni1489   1.905       .  S
O1487     Ni1494   1.919       .  S
O1488     Ni1489   1.952       .  S
Ni1489     O1493   1.903       .  S
Ni1489     O1491   1.899       .  S
O1490     Ni1495   1.952       .  S
C1492      C1553   1.469       .  S
C1492      O1493   1.265       .  A
C1497      N1498   1.358       .  A
C1497      N1502   1.358       .  A
N1498      C1707   1.365       .  A
C1499      C1507   1.473       .  S
N1500      C1707   1.365       .  A
N1500      C1501   1.358       .  A
C1501      N1502   1.358       .  A
C1501      N1509   1.438       .  S
C1503      N1504   1.351       .  A
C1503      N1508   1.361       .  A
N1504      C1505   1.351       .  A
C1505      N1506   1.361       .  A
C1505      C1544   1.469       .  S
N1506      C1507   1.365       .  A
C1507      N1508   1.365       .  A
N1509      C1513   1.358       .  A
N1509      C1510   1.358       .  A
C1510      C1511   1.379       .  A
C1510      C1630   1.474       .  S
C1511      C1512   1.368       .  A
C1511      H2138   1.082       .  S
C1512      C1513   1.383       .  A
C1512      H2139   1.082       .  S
C1513      C1530   1.469       .  S
H1514      C2135   1.082       .  S
H1515      C2136   1.082       .  S
N1516      C1520   1.358       .  A
N1516      C1517   1.358       .  A
N1516      C1555   1.438       .  S
C1517      C2142   1.379       .  A
C1517      C1641   1.474       .  S
C1518      C2141   1.379       .  A
C1518      C1519   1.368       .  A
C1518      H1521   1.082       .  S
C1519      C2144   1.383       .  A
C1519      H1522   1.082       .  S
C1520      C2143   1.383       .  A
C1520      C1536   1.469       .  S
O1523     Ni1529   1.923       .  S
O1523      C1544   1.273       .  A
O1524     Ni1547   1.903   1_545  S
O1524      C1533   1.265       .  A
O1525     Ni1529   1.919       .  S
O1525     Ni2171   1.905       .  S
O1525     Ni1541   1.916       .  S
O1525      H1548   0.967       .  S
C1526      C1614   1.474       .  S
C1526      O2167   1.266       .  A
C1526      O1535   1.274       .  A
O1527     Ni1546   1.923       .  S
O1527      C1533   1.273       .  A
O1528     Ni2170   1.912       .  S
O1528      C1530   1.269       .  A
Ni1529     O1532   1.948       .  S
Ni1529     O1534   1.912       .  S
C1530      O1540   1.276       .  A
O1531     Ni2171   1.899       .  S
O1531      C1537   1.266       .  A
O1532      C1537   1.274       .  A
C1533      C1549   1.469       .  S
O1534      C2160   1.269       .  A
O1535     Ni1546   1.948       .  S
C1536      O2158   1.269   1_545  A
C1536      O1542   1.276       .  A
C1537      C1621   1.474       .  S
H1538      O1539   0.966       .  S
O1539     Ni1547   1.916   1_545  S
O1539     Ni2165   1.905   1_545  S
O1539     Ni1546   1.919       .  S
O1540     Ni1541   1.951       .  S
Ni1541     O1545   1.903       .  S
Ni1541     O1543   1.899       .  S
Ni1541     O2163   1.905       .  S
O1542     Ni1547   1.952   1_545  S
O1543      C2150   1.266       .  A
C1544      O1545   1.265       .  A
Ni1546     O2152   1.912   1_545  S
Ni1547     O2155   1.899       .  S
Ni1547     O2149   1.905       .  S
C1549      N1550   1.361       .  A
C1549      N1554   1.351       .  A
N1550      C1551   1.365       .  A
C1551      N1552   1.365       .  A
C1551      C1767   1.473       .  S
N1552      C1553   1.361       .  A
C1553      N1554   1.351       .  A
C1555      N1556   1.358       .  A
C1555      N1560   1.358       .  A
N1556      C1557   1.358       .  A
C1557      N1558   1.358       .  A
N1558      C1559   1.365       .  A
C1559      N1560   1.365       .  A
N1561      C1565   1.358       .  A
N1561      C1562   1.358       .  A
N1561      C1607   1.438       .  S
C1562      C1563   1.379       .  A
C1563      C1564   1.368       .  A
C1563      H1566   1.082       .  S
C1564      C1565   1.383       .  A
C1564      H1567   1.082       .  S
C1565      C1588   1.469       .  S
N1568      C1572   1.358       .  A
N1568      C1569   1.358       .  A
N1568      C1657   1.438       .  S
C1569      C1570   1.379       .  A
C1570      C1571   1.368       .  A
C1570      H1573   1.082       .  S
C1571      C1572   1.383       .  A
C1571      H1574   1.082       .  S
C1572      C1582   1.469       .  S
O1575     Ni1581   1.923       .  S
O1576     Ni1599   1.903       .  S
O1576      C1585   1.265       .  A
O1577     Ni1581   1.919       .  S
C1578      O1595   1.266       .  A
C1578      O1587   1.274       .  A
O1579     Ni1598   1.923       .  S
O1580     Ni1598   1.912       .  S
O1580      C1582   1.269       .  A
Ni1581     O1586   1.912       .  S
C1582      O1592   1.276       .  A
O1583     Ni1599   1.899       .  S
O1583      C1589   1.266       .  A
O1584     Ni1789   1.948       .  S
O1584      C1589   1.274       .  A
C1585      C1603   1.469       .  S
O1586      C1588   1.269       .  A
C1588      O1594   1.276       .  A
H1590      O1591   0.966   1_455  S
O1591     Ni1593   1.905       .  S
O1592     Ni1801   1.952       .  S
Ni1593     O1597   1.903       .  S
Ni1593     O1595   1.899       .  S
C1596      C1661   1.469       .  S
C1596      O1597   1.265   1_455  A
Ni1598     O1795   1.948       .  S
Ni1598     O1799   1.919       .  S
Ni1599     O1802   1.952       .  S
Ni1599     O1785   1.905       .  S
H1600      O1785   0.967       .  S
C1601      N1606   1.361       .  A
C1601      C1648   1.469       .  S
C1603      N1604   1.361       .  A
N1604      C1605   1.365       .  A
C1605      N1606   1.365       .  A
C1605      C1611   1.473       .  S
C1607      N1608   1.358       .  A
C1607      N1612   1.358       .  A
N1608      C1609   1.358       .  A
C1609      N1610   1.358       .  A
C1609      N1613   1.438       .  S
N1610      C1611   1.365       .  A
C1611      N1612   1.365       .  A
N1613      C1617   1.358       .  A
N1613      C1614   1.358       .  A
C1614      C2239   1.379       .  A
C1615      C2238   1.379       .  A
C1615      C1616   1.368       .  A
C1615      H1618   1.082       .  S
C1616      C2241   1.383       .  A
C1616      H1619   1.082       .  S
C1617      C2240   1.383       .  A
C1617      C1634   1.469       .  S
N1620      C1624   1.358       .  A
N1620      C1621   1.358       .  A
N1620      C1653   1.438       .  S
C1621      C1622   1.379       .  A
C1622      C1623   1.368       .  A
C1622      H2249   1.082       .  S
C1623      C1624   1.383       .  A
C1623      H2250   1.082       .  S
C1624      C1640   1.469       .  S
H1625      C2246   1.082       .  S
H1626      C2247   1.082       .  S
O1627     Ni1633   1.923       .  S
O1628     Ni1651   1.903       .  S
O1628      C1637   1.265   1_655  A
O1629     Ni2275   1.905   1_545  S
O1629      H1652   0.967   1_655  S
C1630      O1647   1.266       .  A
C1630      O1639   1.274       .  A
O1631     Ni1650   1.923       .  S
O1632     Ni1650   1.912       .  S
O1632      C2258   1.269       .  A
Ni1633     O1844   1.948       .  S
Ni1633     O2262   1.912   1_545  S
Ni1633     O1837   1.919       .  S
C1634      O2256   1.269   1_545  A
C1634      O1644   1.276       .  A
O1635     Ni1651   1.899       .  S
O1635      C2265   1.266       .  A
O1636      C1641   1.274       .  A
C1637      C1659   1.469       .  S
O1638     Ni2257   1.912       .  S
O1638      C1640   1.269       .  A
O1639     Ni1858   1.948       .  S
C1640      O1646   1.276       .  A
C1641      O2259   1.266       .  A
H1642      O1851   0.966       .  S
O1643     Ni2061   1.905       .  S
O1643     Ni1650   1.919       .  S
Ni1645     O1852   1.952   1_565  S
Ni1645     O1649   1.903   1_565  S
Ni1645     O2271   1.899       .  S
Ni1645     O2475   1.905       .  S
O1646     Ni1859   1.952       .  S
O1647     Ni2269   1.899       .  S
C1648      O1649   1.265       .  A
Ni1651     O2253   1.905       .  S
C1653      N1654   1.358       .  A
C1653      N1658   1.358       .  A
N1654      C1655   1.365       .  A
C1655      N1656   1.365       .  A
C1655      C1663   1.473       .  S
N1656      C1657   1.358       .  A
C1657      N1658   1.358       .  A
C1659      N1664   1.361   1_455  A
C1661      N1662   1.361   1_455  A
N1662      C1663   1.365       .  A
C1663      N1664   1.365       .  A
N1665      C1669   1.358       .  A
N1665      C1666   1.358       .  A
N1665      C1705   1.438       .  S
C1666      C1667   1.379       .  A
C1666      C1797   1.474       .  S
C1667      C1668   1.368       .  A
C1667      H1670   1.082       .  S
C1668      C1669   1.383       .  A
C1668      H1671   1.082       .  S
C1669      C1692   1.469       .  S
N1672      C1676   1.358       .  A
N1672      C1673   1.358       .  A
N1672      C1765   1.438       .  S
C1673      C1674   1.379       .  A
C1673      C1786   1.474       .  S
C1674      C1675   1.368       .  A
C1674      H1677   1.082       .  S
C1675      C1676   1.383       .  A
C1675      H1678   1.082       .  S
C1676      C1686   1.469       .  S
O1679     Ni1685   1.923       .  S
O1679      C1700   1.272       .  A
O1680     Ni1703   1.903       .  S
O1680      C1689   1.265       .  A
O1681     Ni1685   1.919       .  S
O1681     Ni1703   1.905       .  S
O1681     Ni1697   1.916       .  S
O1681      H1704   0.966       .  S
C1682      C1777   1.474       .  S
C1682      O1699   1.266       .  A
C1682      O1691   1.274       .  A
O1683     Ni1702   1.923       .  S
O1683      C1689   1.273       .  A
O1684     Ni1702   1.912       .  S
O1684      C1686   1.269       .  A
Ni1685     O1688   1.948       .  S
Ni1685     O1690   1.912       .  S
C1686      O1696   1.276       .  A
O1687     Ni1703   1.899       .  S
O1687      C1693   1.266       .  A
O1688      C1693   1.274       .  A
C1689      C1711   1.469       .  S
O1690      C1692   1.269       .  A
O1691     Ni1702   1.948       .  S
C1692      O1698   1.276       .  A
C1693      C1770   1.474       .  S
H1694      O1695   0.966       .  S
O1695     Ni1703   1.916       .  S
O1695     Ni1697   1.905       .  S
O1695     Ni1702   1.919       .  S
O1696     Ni1697   1.952       .  S
Ni1697     O1701   1.903       .  S
Ni1697     O1699   1.899       .  S
O1698     Ni1703   1.952       .  S
C1700      C1761   1.469       .  S
C1700      O1701   1.265       .  A
C1705      N1706   1.358       .  A
C1705      N1710   1.358       .  A
C1707      C1715   1.473       .  S
N1708      C1709   1.358       .  A
C1709      N1710   1.358       .  A
C1709      N1717   1.438       .  S
C1711      N1712   1.351       .  A
C1711      N1716   1.361       .  A
N1712      C1713   1.351       .  A
C1713      N1714   1.361       .  A
C1713      C1752   1.469       .  S
N1714      C1715   1.365       .  A
C1715      N1716   1.365       .  A
N1717      C1721   1.358       .  A
N1717      C1718   1.358       .  A
C1718      C1719   1.379       .  A
C1718      C1838   1.474       .  S
C1719      C1720   1.368       .  A
C1719      H2346   1.082       .  S
C1720      C1721   1.383       .  A
C1720      H2347   1.082       .  S
C1721      C1738   1.469       .  S
H1722      C2343   1.082       .  S
H1723      C2344   1.082       .  S
N1724      C1728   1.358       .  A
N1724      C1725   1.358       .  A
N1724      C1763   1.438       .  S
C1725      C2350   1.379       .  A
C1725      C1849   1.474       .  S
C1726      C2349   1.379       .  A
C1726      C1727   1.368       .  A
C1726      H1729   1.082       .  S
C1727      C2352   1.383       .  A
C1727      H1730   1.082       .  S
C1728      C2351   1.383       .  A
C1728      C1744   1.469       .  S
O1731     Ni1737   1.923       .  S
O1731      C1752   1.273       .  A
O1732     Ni1755   1.903   1_545  S
O1732      C1741   1.265       .  A
O1733     Ni1737   1.919       .  S
O1733     Ni2379   1.905       .  S
O1733     Ni1749   1.916       .  S
O1733      H1756   0.967       .  S
C1734      C1822   1.474       .  S
C1734      O2375   1.266       .  A
C1734      O1743   1.274       .  A
O1735     Ni1754   1.923       .  S
O1735      C1741   1.273       .  A
O1736     Ni2378   1.912       .  S
O1736      C1738   1.269       .  A
Ni1737     O1740   1.948       .  S
Ni1737     O1742   1.912       .  S
C1738      O1748   1.276       .  A
O1739     Ni2379   1.899       .  S
O1739      C1745   1.266       .  A
O1740      C1745   1.274       .  A
C1741      C1757   1.469       .  S
O1742      C2368   1.269       .  A
O1743     Ni1754   1.948       .  S
C1744      O2366   1.269   1_545  A
C1744      O1750   1.276       .  A
C1745      C1829   1.474       .  S
H1746      O1747   0.966       .  S
O1747     Ni1755   1.916   1_545  S
O1747     Ni2373   1.905   1_545  S
O1747     Ni1754   1.919       .  S
O1748     Ni1749   1.951       .  S
Ni1749     O1753   1.903       .  S
Ni1749     O1751   1.899       .  S
Ni1749     O2371   1.905       .  S
O1750     Ni1755   1.952   1_545  S
O1751      C2358   1.266       .  A
C1752      O1753   1.265       .  A
Ni1754     O2360   1.912   1_545  S
Ni1755     O2363   1.899       .  S
Ni1755     O2357   1.905       .  S
C1757      N1758   1.361   1_556  A
C1757      N1762   1.351       .  A
N1758      C1759   1.365       .  A
C1759      N1760   1.365       .  A
N1760      C1761   1.361   1_554  A
C1761      N1762   1.351       .  A
C1763      N1764   1.358       .  A
C1763      N1768   1.358       .  A
N1764      C1765   1.358       .  A
C1765      N1766   1.358       .  A
N1766      C1767   1.365       .  A
C1767      N1768   1.365       .  A
N1769      C1773   1.358       .  A
N1769      C1770   1.358       .  A
N1769      C1815   1.438       .  S
C1770      C1771   1.379       .  A
C1771      C1772   1.368       .  A
C1771      H1774   1.082       .  S
C1772      C1773   1.383       .  A
C1772      H1775   1.082       .  S
C1773      C1796   1.469       .  S
N1776      C1780   1.358       .  A
N1776      C1777   1.358       .  A
N1776      C1865   1.438       .  S
C1777      C1778   1.379   1_556  A
C1778      C1779   1.368       .  A
C1778      H1781   1.082       .  S
C1779      C1780   1.383   1_554  A
C1779      H1782   1.082       .  S
C1780      C1790   1.469       .  S
O1783     Ni1789   1.923       .  S
O1784     Ni1807   1.903       .  S
O1784      C1793   1.265       .  A
O1785     Ni1789   1.919       .  S
C1786      O1803   1.266       .  A
C1786      O1795   1.274       .  A
O1787     Ni1806   1.923       .  S
O1788     Ni1806   1.912       .  S
O1788      C1790   1.269       .  A
Ni1789     O1794   1.912       .  S
C1790      O1800   1.276   1_556  A
O1791     Ni1807   1.899       .  S
O1791      C1797   1.266       .  A
O1792      C1797   1.274       .  A
C1793      C1811   1.469       .  S
O1794      C1796   1.269       .  A
C1796      O1802   1.276       .  A
H1798      O1799   0.966   1_455  S
O1799     Ni1801   1.905       .  S
Ni1801     O1805   1.903       .  S
Ni1801     O1803   1.899       .  S
C1804      C1869   1.469       .  S
C1804      O1805   1.265   1_455  A
C1809      N1814   1.361       .  A
C1809      C1856   1.469       .  S
C1811      N1812   1.361       .  A
N1812      C1813   1.365       .  A
C1813      N1814   1.365       .  A
C1813      C1819   1.473       .  S
C1815      N1816   1.358       .  A
C1815      N1820   1.358       .  A
N1816      C1817   1.358       .  A
C1817      N1818   1.358       .  A
C1817      N1821   1.438       .  S
N1818      C1819   1.365       .  A
C1819      N1820   1.365       .  A
N1821      C1825   1.358       .  A
N1821      C1822   1.358       .  A
C1822      C2447   1.379       .  A
C1823      C2446   1.379       .  A
C1823      C1824   1.368       .  A
C1823      H1826   1.082       .  S
C1824      C2449   1.383       .  A
C1824      H1827   1.082       .  S
C1825      C2448   1.383       .  A
C1825      C1842   1.469       .  S
N1828      C1832   1.358       .  A
N1828      C1829   1.358       .  A
N1828      C1861   1.438       .  S
C1829      C1830   1.379   1_556  A
C1830      C1831   1.368       .  A
C1830      H2457   1.082       .  S
C1831      C1832   1.383   1_554  A
C1831      H2458   1.082       .  S
C1832      C1848   1.469       .  S
H1833      C2454   1.082       .  S
H1834      C2455   1.082       .  S
O1835     Ni1841   1.923       .  S
O1836     Ni1859   1.903       .  S
O1836      C1845   1.265   1_655  A
O1837     Ni2483   1.905   1_545  S
O1837      H1860   0.967   1_655  S
C1838      O1855   1.266       .  A
C1838      O1847   1.274       .  A
O1839     Ni1858   1.923       .  S
O1840     Ni1858   1.912       .  S
O1840      C2466   1.269       .  A
Ni1841     O2470   1.912   1_545  S
C1842      O2464   1.269   1_545  A
C1842      O1852   1.276       .  A
O1843     Ni1859   1.899       .  S
O1843      C2473   1.266       .  A
O1844      C1849   1.274       .  A
C1845      C1867   1.469       .  S
O1846     Ni2465   1.912       .  S
O1846      C1848   1.269       .  A
C1848      O1854   1.276   1_556  A
C1849      O2467   1.266       .  A
O1851     Ni2269   1.905       .  S
O1851     Ni1858   1.919       .  S
Ni1853     O1857   1.903   1_565  S
Ni1853     O2479   1.899       .  S
Ni1853     O2059   1.905   1_556  S
O1855     Ni2477   1.899       .  S
C1856      O1857   1.265       .  A
Ni1859     O2461   1.905       .  S
C1861      N1862   1.358       .  A
C1861      N1866   1.358       .  A
N1862      C1863   1.365       .  A
C1863      N1864   1.365       .  A
C1863      C1871   1.473       .  S
N1864      C1865   1.358       .  A
C1865      N1866   1.358       .  A
C1867      N1872   1.361   1_455  A
C1869      N1870   1.361   1_455  A
N1870      C1871   1.365       .  A
C1871      N1872   1.365       .  A
N1873      C1877   1.358       .  A
N1873      C1874   1.358       .  A
N1873      C1913   1.438       .  S
C1874      C1875   1.379       .  A
C1874      C2005   1.474       .  S
C1875      C1876   1.368       .  A
C1875      H1878   1.082       .  S
C1876      C1877   1.383       .  A
C1876      H1879   1.082       .  S
C1877      C1900   1.469       .  S
N1880      C1884   1.358       .  A
N1880      C1881   1.358       .  A
N1880      C1973   1.438       .  S
C1881      C1882   1.379       .  A
C1881      C1994   1.474       .  S
C1882      C1883   1.368       .  A
C1882      H1885   1.082       .  S
C1883      C1884   1.383       .  A
C1883      H1886   1.082       .  S
C1884      C1894   1.469       .  S
O1887     Ni1893   1.923       .  S
O1887      C1908   1.272       .  A
O1888     Ni1911   1.903       .  S
O1888      C1897   1.265       .  A
O1889     Ni1893   1.919       .  S
O1889     Ni1911   1.905       .  S
O1889     Ni1905   1.916       .  S
O1889      H1912   0.966       .  S
C1890      C1985   1.474       .  S
C1890      O1907   1.266       .  A
C1890      O1899   1.274       .  A
O1891     Ni1910   1.923       .  S
O1891      C1897   1.273       .  A
O1892     Ni1910   1.912       .  S
O1892      C1894   1.269       .  A
Ni1893     O1896   1.948       .  S
Ni1893     O1898   1.912       .  S
C1894      O1904   1.276       .  A
O1895     Ni1911   1.899       .  S
O1895      C1901   1.266       .  A
O1896      C1901   1.274       .  A
C1897      C1919   1.469       .  S
O1898      C1900   1.269       .  A
O1899     Ni1910   1.948       .  S
C1900      O1906   1.276       .  A
C1901      C1978   1.474       .  S
H1902      O1903   0.966       .  S
O1903     Ni1911   1.916       .  S
O1903     Ni1905   1.905       .  S
O1903     Ni1910   1.919       .  S
O1904     Ni1905   1.952       .  S
Ni1905     O1909   1.903       .  S
Ni1905     O1907   1.899       .  S
O1906     Ni1911   1.952       .  S
C1908      C1969   1.469       .  S
C1908      O1909   1.265       .  A
C1913      N1914   1.358       .  A
C1913      N1918   1.358       .  A
N1914      C2123   1.365       .  A
C1915      N2330   1.365       .  A
C1915      N2332   1.365       .  A
C1915      C1923   1.473       .  S
N1916      C2123   1.365       .  A
N1916      C1917   1.358       .  A
C1917      N1918   1.358       .  A
C1917      N1925   1.438       .  S
C1919      N1920   1.351       .  A
C1919      N1924   1.361       .  A
N1920      C1921   1.351       .  A
C1921      N1922   1.361       .  A
C1921      C1960   1.469       .  S
N1922      C1923   1.365   1_554  A
C1923      N1924   1.365   1_556  A
N1925      C1929   1.358       .  A
N1925      C1926   1.358       .  A
C1926      C1927   1.379       .  A
C1926      C2046   1.474       .  S
C1927      C1928   1.368       .  A
C1928      C1929   1.383       .  A
C1929      C1946   1.469       .  S
N1932      C1936   1.358       .  A
N1932      C1933   1.358       .  A
N1932      C1971   1.438       .  S
C1933      C2057   1.474       .  S
C1934      C1935   1.368       .  A
C1934      H1937   1.082       .  S
C1935      H1938   1.082   1_545  S
C1936      C1952   1.469       .  S
O1939     Ni1945   1.923       .  S
O1939      C1960   1.273       .  A
O1940     Ni1963   1.903       .  S
O1940      C1949   1.265       .  A
O1941     Ni1945   1.919       .  S
O1941     Ni1957   1.916       .  S
O1941      H1964   0.967       .  S
C1942      C2030   1.474       .  S
C1942      O1951   1.274       .  A
O1943     Ni1962   1.923       .  S
O1943      C1949   1.273       .  A
O1944      C1946   1.269       .  A
Ni1945     O1948   1.948       .  S
Ni1945     O1950   1.912       .  S
C1946      O1956   1.276       .  A
O1947      C1953   1.266       .  A
O1948      C1953   1.274       .  A
C1949      C1965   1.469       .  S
O1951     Ni1962   1.948       .  S
C1952      O1958   1.276       .  A
C1953      C2037   1.474       .  S
H1954      O1955   0.966       .  S
O1955     Ni1963   1.916       .  S
O1955     Ni1962   1.919       .  S
O1956     Ni1957   1.951       .  S
Ni1957     O1961   1.903       .  S
Ni1957     O1959   1.899   1_565  S
O1958     Ni1963   1.952       .  S
C1960      O1961   1.265       .  A
C1965      N1966   1.361       .  A
C1965      N1970   1.351       .  A
N1966      C1967   1.365       .  A
C1967      N1968   1.365       .  A
C1967      C2183   1.473       .  S
N1968      C1969   1.361       .  A
C1969      N1970   1.351       .  A
C1971      N1972   1.358       .  A
C1971      N1976   1.358       .  A
N1972      C1973   1.358       .  A
C1973      N1974   1.358       .  A
N1974      C1975   1.365       .  A
C1975      N1976   1.365       .  A
C1975      C2383   1.473       .  S
N1977      C1981   1.358       .  A
N1977      C1978   1.358       .  A
N1977      C2023   1.438       .  S
C1978      C1979   1.379       .  A
C1979      C1980   1.368   1_554  A
C1979      H1982   1.082       .  S
C1980      C1981   1.383   1_556  A
C1980      H1983   1.082       .  S
C1981      C2004   1.469       .  S
N1984      C1988   1.358       .  A
N1984      C1985   1.358       .  A
N1984      C2073   1.438       .  S
C1985      C1986   1.379       .  A
C1986      C1987   1.368       .  A
C1986      H1989   1.082       .  S
C1987      C1988   1.383       .  A
C1987      H1990   1.082       .  S
C1988      C1998   1.469       .  S
O1991     Ni1997   1.923       .  S
O1992     Ni2015   1.903       .  S
O1992      C2001   1.265       .  A
O1993     Ni1997   1.919       .  S
O1993     Ni2431   1.905   1_554  S
O1993      H2432   0.967       .  S
C1994      O2011   1.266       .  A
C1994      O2003   1.274       .  A
O1995     Ni2014   1.923       .  S
O1996     Ni2014   1.912       .  S
O1996      C1998   1.269       .  A
Ni1997     O2416   1.948   1_554  S
Ni1997     O2002   1.912       .  S
C1998      O2008   1.276       .  A
O1999     Ni2015   1.899       .  S
O1999      C2005   1.266       .  A
O2000     Ni2205   1.948       .  S
O2000      C2005   1.274       .  A
C2001      C2019   1.469       .  S
O2002      C2004   1.269       .  A
O2003     Ni2430   1.948   1_554  S
C2004      O2010   1.276   1_554  A
H2006      O2007   0.966   1_455  S
O2007     Ni2009   1.905       .  S
O2007     Ni2430   1.919   1_554  S
O2008     Ni2217   1.952       .  S
Ni2009     O2424   1.952       .  S
Ni2009     O2013   1.903       .  S
Ni2009     O2011   1.899       .  S
O2010     Ni2431   1.952       .  S
C2012      C2077   1.469       .  S
C2012      O2013   1.265   1_455  A
Ni2014     O2211   1.948       .  S
Ni2014     O2215   1.919       .  S
Ni2015     O2218   1.952       .  S
Ni2015     O2201   1.905       .  S
H2016      O2201   0.967       .  S
C2017      N2022   1.361       .  A
C2017      C2064   1.469       .  S
C2019      N2020   1.361       .  A
N2020      C2021   1.365       .  A
C2021      N2022   1.365       .  A
C2021      C2027   1.473       .  S
C2023      N2024   1.358       .  A
C2023      N2028   1.358       .  A
N2024      C2025   1.358       .  A
C2025      N2026   1.358       .  A
C2025      N2029   1.438       .  S
N2026      C2027   1.365       .  A
C2027      N2028   1.365       .  A
N2029      C2033   1.358       .  A
N2029      C2030   1.358       .  A
C2031      C2032   1.368   1_554  A
C2031      H2034   1.082       .  S
C2032      H2035   1.082   1_545  S
C2033      C2050   1.469       .  S
N2036      C2040   1.358       .  A
N2036      C2037   1.358       .  A
N2036      C2069   1.438       .  S
C2037      C2038   1.379       .  A
C2038      C2039   1.368       .  A
C2039      C2040   1.383       .  A
C2040      C2056   1.469       .  S
O2043     Ni2049   1.923       .  S
O2044     Ni2067   1.903       .  S
O2044      C2053   1.265   1_655  A
O2045     Ni2465   1.919   1_554  S
O2045      H2068   0.967   1_655  S
C2046      O2063   1.266       .  A
C2046      O2055   1.274       .  A
O2047     Ni2066   1.923       .  S
O2048     Ni2066   1.912       .  S
Ni2049     O2260   1.948       .  S
Ni2049     O2253   1.919       .  S
C2050      O2060   1.276   1_554  A
O2051     Ni2067   1.899   1_545  S
O2052     Ni2465   1.948   1_554  S
O2052      C2057   1.274       .  A
C2053      C2075   1.469       .  S
O2054      C2056   1.269       .  A
O2055     Ni2274   1.948       .  S
C2056      O2062   1.276       .  A
H2058      O2267   0.966       .  S
O2059     Ni2066   1.919       .  S
O2059      H2474   0.966       .  S
O2060     Ni2477   1.952       .  S
Ni2061     O2268   1.952       .  S
Ni2061     O2065   1.903       .  S
O2062     Ni2275   1.952       .  S
C2064      O2065   1.265       .  A
Ni2066     O2471   1.948   1_554  S
Ni2067     O2478   1.952       .  S
C2069      N2070   1.358       .  A
C2069      N2074   1.358       .  A
N2070      C2071   1.365       .  A
C2071      N2072   1.365       .  A
C2071      C2079   1.473       .  S
N2072      C2073   1.358       .  A
C2073      N2074   1.358       .  A
C2075      N2080   1.361   1_455  A
C2077      N2078   1.361   1_455  A
N2078      C2079   1.365       .  A
C2079      N2080   1.365       .  A
N2081      C2085   1.358       .  A
N2081      C2082   1.358       .  A
N2081      C2121   1.438       .  S
C2082      C2083   1.379       .  A
C2082      C2213   1.474       .  S
C2083      C2084   1.368       .  A
C2083      H2086   1.082       .  S
C2084      C2085   1.383       .  A
C2084      H2087   1.082       .  S
C2085      C2108   1.469       .  S
N2088      C2092   1.358       .  A
N2088      C2089   1.358       .  A
N2088      C2181   1.438       .  S
C2089      C2090   1.379       .  A
C2089      C2202   1.474       .  S
C2090      C2091   1.368       .  A
C2090      H2093   1.082       .  S
C2091      C2092   1.383       .  A
C2091      H2094   1.082       .  S
C2092      C2102   1.469       .  S
O2095     Ni2101   1.923       .  S
O2095      C2116   1.272       .  A
O2096     Ni2119   1.903       .  S
O2096      C2105   1.265       .  A
O2097     Ni2101   1.919       .  S
O2097     Ni2119   1.905       .  S
O2097     Ni2113   1.916       .  S
O2097      H2120   0.966       .  S
C2098      C2193   1.474       .  S
C2098      O2115   1.266       .  A
C2098      O2107   1.274       .  A
O2099     Ni2118   1.923       .  S
O2099      C2105   1.273       .  A
O2100     Ni2118   1.912       .  S
O2100      C2102   1.269       .  A
Ni2101     O2104   1.948       .  S
Ni2101     O2106   1.912       .  S
C2102      O2112   1.276       .  A
O2103     Ni2119   1.899       .  S
O2103      C2109   1.266       .  A
O2104      C2109   1.274       .  A
C2105      C2127   1.469       .  S
O2106      C2108   1.269       .  A
O2107     Ni2118   1.948       .  S
C2108      O2114   1.276       .  A
C2109      C2186   1.474       .  S
H2110      O2111   0.966       .  S
O2111     Ni2119   1.916       .  S
O2111     Ni2113   1.905       .  S
O2111     Ni2118   1.919       .  S
O2112     Ni2113   1.952       .  S
Ni2113     O2117   1.903       .  S
Ni2113     O2115   1.899       .  S
O2114     Ni2119   1.952       .  S
C2116      C2177   1.469       .  S
C2116      O2117   1.265       .  A
C2121      N2122   1.358       .  A
C2121      N2126   1.358       .  A
N2122      C2331   1.365       .  A
C2123      C2131   1.473       .  S
N2124      C2331   1.365       .  A
N2124      C2125   1.358       .  A
C2125      N2126   1.358       .  A
C2125      N2133   1.438       .  S
C2127      N2128   1.351       .  A
C2127      N2132   1.361       .  A
N2128      C2129   1.351       .  A
C2129      N2130   1.361       .  A
C2129      C2168   1.469       .  S
N2130      C2131   1.365       .  A
C2131      N2132   1.365       .  A
N2133      C2137   1.358       .  A
N2133      C2134   1.358       .  A
C2134      C2135   1.379       .  A
C2134      C2254   1.474       .  S
C2135      C2136   1.368       .  A
C2136      C2137   1.383       .  A
C2137      C2154   1.469       .  S
N2140      C2144   1.358       .  A
N2140      C2141   1.358       .  A
N2140      C2179   1.438       .  S
C2141      C2265   1.474       .  S
C2142      C2143   1.368       .  A
C2142      H2145   1.082       .  S
C2143      H2146   1.082   1_545  S
C2144      C2160   1.469       .  S
O2147     Ni2153   1.923       .  S
O2147      C2168   1.273       .  A
O2148     Ni2171   1.903       .  S
O2148      C2157   1.265       .  A
O2149     Ni2153   1.919       .  S
O2149     Ni2165   1.916       .  S
O2149      H2172   0.967       .  S
C2150      C2238   1.474       .  S
C2150      O2159   1.274       .  A
O2151     Ni2170   1.923       .  S
O2151      C2157   1.273       .  A
O2152      C2154   1.269       .  A
Ni2153     O2156   1.948       .  S
Ni2153     O2158   1.912       .  S
C2154      O2164   1.276       .  A
O2155      C2161   1.266       .  A
O2156      C2161   1.274       .  A
C2157      C2173   1.469       .  S
O2159     Ni2170   1.948       .  S
C2160      O2166   1.276       .  A
C2161      C2245   1.474       .  S
H2162      O2163   0.966       .  S
O2163     Ni2171   1.916       .  S
O2163     Ni2170   1.919       .  S
O2164     Ni2165   1.951       .  S
Ni2165     O2169   1.903       .  S
Ni2165     O2167   1.899   1_565  S
O2166     Ni2171   1.952       .  S
C2168      O2169   1.265       .  A
C2173      N2174   1.361       .  A
C2173      N2178   1.351       .  A
N2174      C2175   1.365       .  A
C2175      N2176   1.365       .  A
C2175      C2391   1.473       .  S
N2176      C2177   1.361       .  A
C2177      N2178   1.351       .  A
C2179      N2180   1.358       .  A
C2179      N2184   1.358       .  A
N2180      C2181   1.358       .  A
C2181      N2182   1.358       .  A
N2182      C2183   1.365       .  A
C2183      N2184   1.365       .  A
N2185      C2189   1.358       .  A
N2185      C2186   1.358       .  A
N2185      C2231   1.438       .  S
C2186      C2187   1.379       .  A
C2187      C2188   1.368       .  A
C2187      H2190   1.082       .  S
C2188      C2189   1.383       .  A
C2188      H2191   1.082       .  S
C2189      C2212   1.469       .  S
N2192      C2196   1.358       .  A
N2192      C2193   1.358       .  A
N2192      C2281   1.438       .  S
C2193      C2194   1.379       .  A
C2194      C2195   1.368       .  A
C2194      H2197   1.082       .  S
C2195      C2196   1.383       .  A
C2195      H2198   1.082       .  S
C2196      C2206   1.469       .  S
O2199     Ni2205   1.923       .  S
O2200     Ni2223   1.903       .  S
O2200      C2209   1.265       .  A
O2201     Ni2205   1.919       .  S
C2202      O2219   1.266       .  A
C2202      O2211   1.274       .  A
O2203     Ni2222   1.923       .  S
O2204     Ni2222   1.912       .  S
O2204      C2206   1.269       .  A
Ni2205     O2210   1.912       .  S
C2206      O2216   1.276       .  A
O2207     Ni2223   1.899       .  S
O2207      C2213   1.266       .  A
O2208     Ni2413   1.948       .  S
O2208      C2213   1.274       .  A
C2209      C2227   1.469       .  S
O2210      C2212   1.269       .  A
C2212      O2218   1.276       .  A
H2214      O2215   0.966   1_455  S
O2215     Ni2217   1.905       .  S
O2216     Ni2425   1.952       .  S
Ni2217     O2221   1.903       .  S
Ni2217     O2219   1.899       .  S
C2220      C2285   1.469       .  S
C2220      O2221   1.265   1_455  A
Ni2222     O2419   1.948       .  S
Ni2222     O2423   1.919       .  S
Ni2223     O2426   1.952       .  S
Ni2223     O2409   1.905       .  S
H2224      O2409   0.967       .  S
C2225      N2230   1.361       .  A
C2225      C2272   1.469       .  S
C2227      N2228   1.361       .  A
N2228      C2229   1.365       .  A
C2229      N2230   1.365       .  A
C2229      C2235   1.473       .  S
C2231      N2232   1.358       .  A
C2231      N2236   1.358       .  A
N2232      C2233   1.358       .  A
C2233      N2234   1.358       .  A
C2233      N2237   1.438       .  S
N2234      C2235   1.365       .  A
C2235      N2236   1.365       .  A
N2237      C2241   1.358       .  A
N2237      C2238   1.358       .  A
C2239      C2240   1.368       .  A
C2239      H2242   1.082       .  S
C2240      H2243   1.082   1_545  S
C2241      C2258   1.469       .  S
N2244      C2248   1.358       .  A
N2244      C2245   1.358       .  A
N2244      C2277   1.438       .  S
C2245      C2246   1.379       .  A
C2246      C2247   1.368       .  A
C2247      C2248   1.383       .  A
C2248      C2264   1.469       .  S
O2251     Ni2257   1.923       .  S
O2252     Ni2275   1.903       .  S
O2252      C2261   1.265   1_655  A
O2253      H2276   0.967   1_655  S
C2254      O2271   1.266       .  A
C2254      O2263   1.274       .  A
O2255     Ni2274   1.923       .  S
O2256     Ni2274   1.912       .  S
Ni2257     O2468   1.948       .  S
Ni2257     O2461   1.919       .  S
C2258      O2268   1.276       .  A
O2259     Ni2275   1.899   1_545  S
O2260      C2265   1.274       .  A
C2261      C2283   1.469       .  S
O2262      C2264   1.269       .  A
O2263     Ni2482   1.948       .  S
C2264      O2270   1.276       .  A
H2266      O2475   0.966       .  S
O2267     Ni2274   1.919       .  S
Ni2269     O2476   1.952       .  S
Ni2269     O2273   1.903       .  S
O2270     Ni2483   1.952       .  S
C2272      O2273   1.265       .  A
C2277      N2278   1.358       .  A
C2277      N2282   1.358       .  A
N2278      C2279   1.365       .  A
C2279      N2280   1.365       .  A
C2279      C2287   1.473       .  S
N2280      C2281   1.358       .  A
C2281      N2282   1.358       .  A
C2283      N2288   1.361   1_455  A
C2285      N2286   1.361   1_455  A
N2286      C2287   1.365       .  A
C2287      N2288   1.365       .  A
N2289      C2293   1.358       .  A
N2289      C2290   1.358       .  A
N2289      C2329   1.438       .  S
C2290      C2291   1.379       .  A
C2290      C2421   1.474       .  S
C2291      C2292   1.368       .  A
C2291      H2294   1.082       .  S
C2292      C2293   1.383       .  A
C2292      H2295   1.082       .  S
C2293      C2316   1.469       .  S
N2296      C2300   1.358       .  A
N2296      C2297   1.358       .  A
N2296      C2389   1.438       .  S
C2297      C2298   1.379       .  A
C2297      C2410   1.474       .  S
C2298      C2299   1.368       .  A
C2298      H2301   1.082       .  S
C2299      C2300   1.383       .  A
C2299      H2302   1.082       .  S
C2300      C2310   1.469       .  S
O2303     Ni2309   1.923       .  S
O2303      C2324   1.272       .  A
O2304     Ni2327   1.903       .  S
O2304      C2313   1.265       .  A
O2305     Ni2309   1.919       .  S
O2305     Ni2327   1.905       .  S
O2305     Ni2321   1.916       .  S
O2305      H2328   0.966       .  S
C2306      C2401   1.474       .  S
C2306      O2323   1.266       .  A
C2306      O2315   1.274       .  A
O2307     Ni2326   1.923       .  S
O2307      C2313   1.273       .  A
O2308     Ni2326   1.912       .  S
O2308      C2310   1.269       .  A
Ni2309     O2312   1.948       .  S
Ni2309     O2314   1.912       .  S
C2310      O2320   1.276       .  A
O2311     Ni2327   1.899       .  S
O2311      C2317   1.266       .  A
O2312      C2317   1.274       .  A
C2313      C2335   1.469       .  S
O2314      C2316   1.269       .  A
O2315     Ni2326   1.948       .  S
C2316      O2322   1.276       .  A
C2317      C2394   1.474       .  S
H2318      O2319   0.966       .  S
O2319     Ni2327   1.916       .  S
O2319     Ni2321   1.905       .  S
O2319     Ni2326   1.919       .  S
O2320     Ni2321   1.952       .  S
Ni2321     O2325   1.903       .  S
Ni2321     O2323   1.899       .  S
O2322     Ni2327   1.952       .  S
C2324      C2385   1.469       .  S
C2324      O2325   1.265       .  A
C2329      N2330   1.358       .  A
C2329      N2334   1.358       .  A
C2331      C2339   1.473       .  S
N2332      C2333   1.358       .  A
C2333      N2334   1.358       .  A
C2333      N2341   1.438       .  S
C2335      N2336   1.351       .  A
C2335      N2340   1.361       .  A
N2336      C2337   1.351       .  A
C2337      N2338   1.361       .  A
C2337      C2376   1.469       .  S
N2338      C2339   1.365       .  A
C2339      N2340   1.365       .  A
N2341      C2345   1.358       .  A
N2341      C2342   1.358       .  A
C2342      C2343   1.379       .  A
C2342      C2462   1.474       .  S
C2343      C2344   1.368       .  A
C2344      C2345   1.383       .  A
C2345      C2362   1.469       .  S
N2348      C2352   1.358       .  A
N2348      C2349   1.358       .  A
N2348      C2387   1.438       .  S
C2349      C2473   1.474       .  S
C2350      C2351   1.368       .  A
C2350      H2353   1.082       .  S
C2351      H2354   1.082   1_545  S
C2352      C2368   1.469       .  S
O2355     Ni2361   1.923       .  S
O2355      C2376   1.273       .  A
O2356     Ni2379   1.903       .  S
O2356      C2365   1.265       .  A
O2357     Ni2361   1.919       .  S
O2357     Ni2373   1.916       .  S
O2357      H2380   0.967       .  S
C2358      C2446   1.474       .  S
C2358      O2367   1.274       .  A
O2359     Ni2378   1.923       .  S
O2359      C2365   1.273       .  A
O2360      C2362   1.269       .  A
Ni2361     O2364   1.948       .  S
Ni2361     O2366   1.912       .  S
C2362      O2372   1.276       .  A
O2363      C2369   1.266       .  A
O2364      C2369   1.274       .  A
C2365      C2381   1.469       .  S
O2367     Ni2378   1.948       .  S
C2368      O2374   1.276       .  A
C2369      C2453   1.474       .  S
H2370      O2371   0.966       .  S
O2371     Ni2379   1.916       .  S
O2371     Ni2378   1.919       .  S
O2372     Ni2373   1.951       .  S
Ni2373     O2377   1.903       .  S
Ni2373     O2375   1.899   1_565  S
O2374     Ni2379   1.952       .  S
C2376      O2377   1.265       .  A
C2381      N2382   1.361   1_556  A
C2381      N2386   1.351       .  A
N2382      C2383   1.365       .  A
C2383      N2384   1.365       .  A
N2384      C2385   1.361   1_554  A
C2385      N2386   1.351       .  A
C2387      N2388   1.358       .  A
C2387      N2392   1.358       .  A
N2388      C2389   1.358       .  A
C2389      N2390   1.358       .  A
N2390      C2391   1.365       .  A
C2391      N2392   1.365       .  A
N2393      C2397   1.358       .  A
N2393      C2394   1.358       .  A
N2393      C2439   1.438       .  S
C2394      C2395   1.379       .  A
C2395      C2396   1.368       .  A
C2395      H2398   1.082       .  S
C2396      C2397   1.383       .  A
C2396      H2399   1.082       .  S
C2397      C2420   1.469       .  S
N2400      C2404   1.358       .  A
N2400      C2401   1.358       .  A
N2400      C2489   1.438       .  S
C2401      C2402   1.379   1_556  A
C2402      C2403   1.368       .  A
C2402      H2405   1.082       .  S
C2403      C2404   1.383   1_554  A
C2403      H2406   1.082       .  S
C2404      C2414   1.469       .  S
O2407     Ni2413   1.923       .  S
O2408     Ni2431   1.903       .  S
O2408      C2417   1.265       .  A
O2409     Ni2413   1.919       .  S
C2410      O2427   1.266       .  A
C2410      O2419   1.274       .  A
O2411     Ni2430   1.923       .  S
O2412     Ni2430   1.912       .  S
O2412      C2414   1.269       .  A
Ni2413     O2418   1.912       .  S
C2414      O2424   1.276   1_556  A
O2415     Ni2431   1.899       .  S
O2415      C2421   1.266       .  A
O2416      C2421   1.274       .  A
C2417      C2435   1.469       .  S
O2418      C2420   1.269       .  A
C2420      O2426   1.276       .  A
H2422      O2423   0.966   1_455  S
O2423     Ni2425   1.905       .  S
Ni2425     O2429   1.903       .  S
Ni2425     O2427   1.899       .  S
C2428      C2493   1.469       .  S
C2428      O2429   1.265   1_455  A
C2433      N2438   1.361       .  A
C2433      C2480   1.469       .  S
C2435      N2436   1.361       .  A
N2436      C2437   1.365       .  A
C2437      N2438   1.365       .  A
C2437      C2443   1.473       .  S
C2439      N2440   1.358       .  A
C2439      N2444   1.358       .  A
N2440      C2441   1.358       .  A
C2441      N2442   1.358       .  A
C2441      N2445   1.438       .  S
N2442      C2443   1.365       .  A
C2443      N2444   1.365       .  A
N2445      C2449   1.358       .  A
N2445      C2446   1.358       .  A
C2447      C2448   1.368       .  A
C2447      H2450   1.082       .  S
C2448      H2451   1.082   1_545  S
C2449      C2466   1.469       .  S
N2452      C2456   1.358       .  A
N2452      C2453   1.358       .  A
N2452      C2485   1.438       .  S
C2453      C2454   1.379   1_556  A
C2454      C2455   1.368       .  A
C2455      C2456   1.383   1_554  A
C2456      C2472   1.469       .  S
O2459     Ni2465   1.923       .  S
O2460     Ni2483   1.903       .  S
O2460      C2469   1.265   1_655  A
O2461      H2484   0.967   1_655  S
C2462      O2479   1.266       .  A
C2462      O2471   1.274       .  A
O2463     Ni2482   1.923       .  S
O2464     Ni2482   1.912       .  S
C2466      O2476   1.276       .  A
O2467     Ni2483   1.899   1_545  S
O2468      C2473   1.274       .  A
C2469      C2491   1.469       .  S
O2470      C2472   1.269       .  A
C2472      O2478   1.276   1_556  A
O2475     Ni2482   1.919       .  S
Ni2477     O2481   1.903       .  S
C2480      O2481   1.265       .  A
C2485      N2486   1.358       .  A
C2485      N2490   1.358       .  A
N2486      C2487   1.365       .  A
C2487      N2488   1.365       .  A
C2487      C2495   1.473       .  S
N2488      C2489   1.358       .  A
C2489      N2490   1.358       .  A
C2491      N2496   1.361   1_455  A
C2493      N2494   1.361   1_455  A
N2494      C2495   1.365       .  A
C2495      N2496   1.365       .  A
