geometry optimzed in LAMMPS
_audit_creation_date              2020-11-30 
_audit_creation_method            'lammps2cif' 
_symmetry_space_group_name_H-M    'P1' 
_symmetry_Int_Tables_number       1 
_symmetry_cell_setting            triclinic 
loop_ 
_symmetry_equiv_pos_as_xyz 
  x,y,z 
_cell_length_a                    30.76715975 
_cell_length_b                    30.74168578601151 
_cell_length_c                    30.744840432661647 
_cell_angle_alpha                 89.80827067834964 
_cell_angle_beta                  89.97016284065525 
_cell_angle_gamma                 89.94319995052098 
loop_ 
_atom_site_label 
_atom_site_type_symbol 
_atom_site_fract_x 
_atom_site_fract_y 
_atom_site_fract_z 
_atom_site_charge 
O1          O  0.94529930  0.99291738  0.03986917    -0.72300
O2          O  0.07565832  0.99355976  0.03935391    -0.73200
O3          O  0.01025288  0.05834885  0.03457889    -0.61900
O4          O  0.01020072  0.92780225  0.04450076    -0.70300
O5          O  0.00998763  0.92308278  0.97271879    -0.69800
O6          O  0.00862645  0.05319668  0.96271107    -0.61100
O7          O  0.07483991  0.98931427  0.96746034    -0.73600
O8          O  0.94436463  0.98731814  0.96811746    -0.72400
Cu9        Cu  0.01043576  0.99330461  0.04208150     1.04600
Cu10       Cu  0.00956402  0.98799425  0.96527493     1.04300
C11         C  0.92412532  0.98951974  0.00435595     0.93900
C12         C  0.09590544  0.99257409  0.00307495     0.93100
C13         C  0.00892886  0.07637666  0.99706230     0.85200
C14         C  0.00938787  0.90468449  0.01007958     0.91500
O15         O  0.05776048  0.00345585  0.52601605    -0.72300
O16         O  0.92752490  0.01112696  0.52243203    -0.73200
O17         O  0.98905625  0.94268950  0.52159741    -0.61900
O18         O  0.99642006  0.07190070  0.52759841    -0.70300
O19         O  0.99867318  0.07639179  0.45571346    -0.69800
O20         O  0.99100085  0.94526552  0.44959304    -0.61100
O21         O  0.92941961  0.01479096  0.45057475    -0.73600
O22         O  0.06027570  0.00723928  0.45406946    -0.72400
Cu23       Cu  0.99260135  0.00720819  0.52678445     1.04600
Cu24       Cu  0.99491008  0.01105369  0.44986986     1.04300
C25         C  0.07964526  0.00393187  0.49072413     0.93900
C26         C  0.90769810  0.01412379  0.48598978     0.93100
C27         C  0.98887630  0.92331172  0.48495440     0.85200
C28         C  0.99840773  0.09475468  0.49300515     0.91500
O29         O  0.02922701  0.55562460  0.00554262    -0.72300
O30         O  0.03194757  0.42500280  0.00079090    -0.73200
O31         O  0.03264923  0.49277070  0.93770363    -0.61900
O32         O  0.02803146  0.48771527  0.06876888    -0.70300
O33         O  0.95644770  0.48751047  0.06583404    -0.69800
O34         O  0.96071791  0.49079966  0.93570263    -0.61100
O35         O  0.95989120  0.42369531  0.99955378    -0.73600
O36         O  0.95750046  0.55436349  0.00219149    -0.72400
Cu37       Cu  0.03300056  0.49029581  0.00328310     1.04600
Cu38       Cu  0.95620801  0.48900674  0.00071705     1.04300
C39         C  0.99288044  0.57584302  0.00477876     0.93900
C40         C  0.99631303  0.40374170  0.99983568     0.93100
C41         C  0.99717923  0.49293181  0.91601444     0.85200
C42         C  0.99125745  0.48703040  0.08828569     0.91500
O43         O  0.03586431  0.44409912  0.50290215    -0.72300
O44         O  0.03171974  0.57420595  0.49850436    -0.73200
O45         O  0.03638439  0.51068765  0.56589891    -0.61900
O46         O  0.03116934  0.50678913  0.43536854    -0.70300
O47         O  0.95903638  0.50557265  0.43817691    -0.69800
O48         O  0.96447589  0.50792640  0.56897980    -0.61100
O49         O  0.95997356  0.57295266  0.50180671    -0.73600
O50         O  0.96393371  0.44167957  0.50504858    -0.72400
Cu51       Cu  0.03621336  0.50916325  0.50059235     1.04600
Cu52       Cu  0.95928959  0.50710586  0.50366338     1.04300
C53         C  0.00070798  0.42221864  0.50481743     0.93900
C54         C  0.99549207  0.59442605  0.49878146     0.93100
C55         C  0.00135040  0.50907379  0.58810114     0.85200
C56         C  0.99434011  0.50487034  0.41631625     0.91500
O57         O  0.57463562  0.03622826  0.00219276    -0.72300
O58         O  0.44444534  0.03567447  0.00138221    -0.73200
O59         O  0.50912908  0.03852080  0.06697005    -0.61900
O60         O  0.51018603  0.03385248  0.93659489    -0.70300
O61         O  0.50974667  0.96178666  0.93883739    -0.69800
O62         O  0.50988719  0.96645588  0.06968472    -0.61100
O63         O  0.44430960  0.96363451  0.00416814    -0.73600
O64         O  0.57492091  0.96444341  0.00458037    -0.72400
Cu65       Cu  0.50956472  0.03851903  0.00164932     1.04600
Cu66       Cu  0.50972316  0.96153015  0.00438627     1.04300
C67         C  0.59564973  0.00048724  0.00382616     0.93900
C68         C  0.42372482  0.99975627  0.00316515     0.93100
C69         C  0.50987910  0.00320421  0.08896730     0.85200
C70         C  0.51031587  0.99729224  0.91706486     0.91500
O71         O  0.42687949  0.03630334  0.50586784    -0.72300
O72         O  0.55764895  0.04082246  0.50379740    -0.73200
O73         O  0.49144059  0.04343399  0.44006910    -0.61900
O74         O  0.49344027  0.03373365  0.57052648    -0.70300
O75         O  0.49504956  0.96199238  0.56537423    -0.69800
O76         O  0.49471469  0.97175960  0.43514800    -0.61100
O77         O  0.55977613  0.96902750  0.49960130    -0.73600
O78         O  0.42951239  0.96452926  0.49970812    -0.72400
Cu79       Cu  0.49219331  0.04107498  0.50540456     1.04600
Cu80       Cu  0.49477478  0.96436103  0.49994754     1.04300
C81         C  0.40758146  0.99971714  0.50189223     0.93900
C82         C  0.57941990  0.00556060  0.50012340     0.93100
C83         C  0.49355309  0.00915362  0.41685672     0.85200
C84         C  0.49506901  0.99628065  0.58870309     0.91500
C85         C  0.53438460  0.01910021  0.79731143    -0.11200
C86         C  0.50320182  0.99263300  0.77736274     0.11400
C87         C  0.47601506  0.96590087  0.80324473    -0.03000
C88         C  0.47986486  0.96803580  0.84879806    -0.05700
C89         C  0.50977989  0.99594564  0.86891360    -0.16500
C90         C  0.53813096  0.02149015  0.84286173     0.02400
C91         C  0.50000350  0.99362291  0.72914523     0.12400
C92         C  0.44322934  0.93526007  0.78278532     0.63000
H93         H  0.45894233  0.94827460  0.86924548     0.12400
C94         C  0.57287876  0.05029502  0.86281176     0.55100
H95         H  0.55545040  0.03848674  0.77665386     0.08200
C96         C  0.47713000  0.02685119  0.70689029    -0.05600
C97         C  0.47563461  0.02582006  0.66115086    -0.06400
C98         C  0.49679444  0.99319600  0.63707940    -0.15900
C99         C  0.52055563  0.96038554  0.65964895    -0.01500
C100        C  0.52154746  0.96130062  0.70545342    -0.09100
C101        C  0.45511145  0.06365601  0.73139812     0.65200
H102        H  0.45805901  0.05093911  0.64371590     0.10600
C103        C  0.54608251  0.92536020  0.63595030     0.63600
H104        H  0.53943889  0.93676529  0.72340915     0.08000
F105        F  0.55368377  0.08463111  0.88448979    -0.19500
F106        F  0.60040501  0.06748397  0.83154164    -0.15700
F107        F  0.59782961  0.02633012  0.89167281    -0.19200
F108        F  0.46477532  0.90395161  0.75885143    -0.22600
F109        F  0.41555969  0.95812858  0.75564952    -0.24000
F110        F  0.41818723  0.91428414  0.81384325    -0.18000
F111        F  0.57098991  0.90056803  0.66419758    -0.20500
F112        F  0.57391267  0.94432272  0.60604732    -0.21700
F113        F  0.51781878  0.89760506  0.61483111    -0.18900
F114        F  0.43218125  0.09094494  0.70379364    -0.18900
F115        F  0.48607445  0.08827711  0.75259919    -0.22800
F116        F  0.42630154  0.04703703  0.76168817    -0.24400
C117        C  0.53417623  0.98395084  0.20906459    -0.11200
C118        C  0.50167230  0.00934381  0.22845233     0.11400
C119        C  0.47359684  0.03459760  0.20204494    -0.03000
C120        C  0.47905214  0.03315615  0.15672093    -0.05700
C121        C  0.50926887  0.00521030  0.13707966    -0.16500
C122        C  0.53797533  0.98060453  0.16358556     0.02400
C123        C  0.49831272  0.00922722  0.27659719     0.12400
C124        C  0.43738906  0.06203738  0.22149159     0.63000
H125        H  0.45904401  0.05358809  0.13610199     0.12400
C126        C  0.57327489  0.95208619  0.14416310     0.55100
H127        H  0.55612819  0.96597274  0.23011163     0.08200
C128        C  0.47998998  0.97389774  0.29973703    -0.05600
C129        C  0.47832987  0.97594605  0.34533830    -0.06400
C130        C  0.49449152  0.01186623  0.36849370    -0.15900
C131        C  0.51284657  0.04740435  0.34502033    -0.01500
C132        C  0.51474004  0.04501420  0.29933132    -0.09100
C133        C  0.46278513  0.93392230  0.27645601     0.65200
H134        H  0.46457276  0.94898220  0.36338826     0.10600
C135        C  0.53139037  0.08726749  0.36748405     0.63600
H136        H  0.52923607  0.07119079  0.28067182     0.08000
F137        F  0.55471541  0.91708707  0.12308001    -0.19500
F138        F  0.60106625  0.93591536  0.17573966    -0.15700
F139        F  0.59778912  0.97597527  0.11488899    -0.19200
F140        F  0.45475190  0.09486992  0.24662964    -0.22600
F141        F  0.41084867  0.03626609  0.24712576    -0.24000
F142        F  0.41177367  0.08109342  0.18965456    -0.18000
F143        F  0.55058850  0.11576978  0.33827794    -0.20500
F144        F  0.56276164  0.07477646  0.39724253    -0.21700
F145        F  0.49850149  0.10958425  0.38848845    -0.18900
F146        F  0.44240872  0.90540755  0.30481542    -0.18900
F147        F  0.49673257  0.91195648  0.25688495    -0.22800
F148        F  0.43295452  0.94607259  0.24506337    -0.24400
C149        C  0.03032450  0.52905879  0.70704805    -0.11200
C150        C  0.00424721  0.49787712  0.72776098     0.11400
C151        C  0.97643567  0.47117738  0.70273115    -0.03000
C152        C  0.97673247  0.47584584  0.65717945    -0.05700
C153        C  0.00328600  0.50663646  0.63624323    -0.16500
C154        C  0.03026487  0.53413394  0.66150508     0.02400
C155        C  0.00401789  0.49654349  0.77603069     0.12400
C156        C  0.94599096  0.43857264  0.72415053     0.63000
H157        H  0.95605789  0.45537472  0.63739949     0.12400
C158        C  0.05739132  0.56988913  0.64079837     0.55100
H159        H  0.05044196  0.54981507  0.72710459     0.08200
C160        C  0.03480257  0.47240871  0.80035625    -0.05600
C161        C  0.03128310  0.47195575  0.84604070    -0.06400
C162        C  0.99852030  0.49526462  0.86778634    -0.15900
C163        C  0.96893154  0.52100833  0.84323307    -0.01500
C164        C  0.97234252  0.52106023  0.79762915    -0.09100
C165        C  0.07161074  0.44806014  0.77819599     0.65200
H166        H  0.05413433  0.45316546  0.86523478     0.10600
C167        C  0.93441791  0.54910853  0.86468889     0.63600
H168        H  0.94982450  0.53998361  0.77814970     0.08000
F169        F  0.09055069  0.55182140  0.61645911    -0.19500
F170        F  0.07601299  0.59669262  0.67170223    -0.15700
F171        F  0.03145952  0.59540495  0.61420730    -0.19200
F172        F  0.91633893  0.46020223  0.75005215    -0.22600
F173        F  0.96933012  0.40974135  0.74962032    -0.24000
F174        F  0.92302564  0.41471226  0.69375972    -0.18000
F175        F  0.91474038  0.57698040  0.83518858    -0.20500
F176        F  0.95293773  0.57430051  0.89694980    -0.21700
F177        F  0.90247666  0.52294856  0.88252413    -0.18900
F178        F  0.09688365  0.42528918  0.80778275    -0.18900
F179        F  0.09811034  0.47729433  0.75659501    -0.22800
F180        F  0.05522263  0.41865107  0.74855764    -0.24400
C181        C  0.95236037  0.48573740  0.20733872    -0.11200
C182        C  0.99185351  0.49083683  0.22916090     0.11400
C183        C  0.03113397  0.49107509  0.20544715    -0.03000
C184        C  0.02926964  0.48968578  0.15975219    -0.05700
C185        C  0.98952926  0.48646419  0.13706720    -0.16500
C186        C  0.95018745  0.48299579  0.16165361     0.02400
C187        C  0.99106446  0.49531718  0.27718398     0.12400
C188        C  0.07479045  0.49204043  0.22855712     0.63000
H189        H  0.05926255  0.49107307  0.14147309     0.12400
C190        C  0.90586272  0.47623867  0.14080119     0.55100
H191        H  0.92302695  0.48438005  0.22673557     0.08200
C192        C  0.98500221  0.53614181  0.29761352    -0.05600
C193        C  0.98651327  0.53820829  0.34335415    -0.06400
C194        C  0.99266285  0.50068528  0.36860414    -0.15900
C195        C  0.99668995  0.45970306  0.34817422    -0.01500
C196        C  0.99604731  0.45771708  0.30253564    -0.09100
C197        C  0.97628884  0.57700437  0.27111652     0.65200
H198        H  0.98265744  0.56910477  0.35984229     0.10600
C199        C  0.00023139  0.41829426  0.37477841     0.63600
H200        H  0.99940819  0.42672079  0.28612925     0.08000
F201        F  0.89475552  0.51229184  0.11617251    -0.19500
F202        F  0.87344134  0.47018287  0.17147980    -0.15700
F203        F  0.90666315  0.43957503  0.11487826    -0.19200
F204        F  0.07932867  0.45501296  0.25381007    -0.22600
F205        F  0.07751548  0.52819117  0.25502127    -0.24000
F206        F  0.10916136  0.49342515  0.19952685    -0.18000
F207        F  0.00320157  0.38169194  0.34882693    -0.20500
F208        F  0.96362139  0.41429475  0.40045821    -0.21700
F209        F  0.03671386  0.41983260  0.40096877    -0.18900
F210        F  0.97261510  0.61341745  0.29723477    -0.18900
F211        F  0.93784083  0.57233566  0.24835722    -0.22800
F212        F  0.00976204  0.58411326  0.24195998    -0.24400
C213        C  0.29090842  0.97680392  0.46718365    -0.11200
C214        C  0.26775962  0.00117051  0.49788530     0.11400
C215        C  0.29044548  0.02373714  0.53088789    -0.03000
C216        C  0.33617208  0.02238426  0.53098010    -0.05700
C217        C  0.35949129  0.99839469  0.49997229    -0.16500
C218        C  0.33662004  0.97523590  0.46729915     0.02400
C219        C  0.21960017  0.00196924  0.49477874     0.12400
C220        C  0.26640636  0.04868165  0.56604763     0.63000
H221        H  0.35421279  0.03970970  0.55572243     0.12400
C222        C  0.36014321  0.95054990  0.43158058     0.55100
H223        H  0.27264442  0.95930919  0.44272623     0.08200
C224        C  0.19745113  0.03070407  0.46631755    -0.05600
C225        C  0.15167279  0.03028382  0.46591582    -0.06400
C226        C  0.12779805  0.00153188  0.49229024    -0.15900
C227        C  0.15024480  0.97098704  0.51877721    -0.01500
C228        C  0.19594998  0.97207080  0.51978376    -0.09100
C229        C  0.22217331  0.06119082  0.43620197     0.65200
H230        H  0.13407326  0.05268751  0.44510749     0.10600
C231        C  0.12629649  0.93597082  0.54411593     0.63600
H232        H  0.21378592  0.94946967  0.54018443     0.08000
F233        F  0.33166676  0.93490460  0.40048332    -0.19500
F234        F  0.38210192  0.91539461  0.44911721    -0.15700
F235        F  0.38936778  0.97782749  0.41090897    -0.19200
F236        F  0.24101099  0.02036610  0.59007790    -0.22600
F237        F  0.24003828  0.08005166  0.54747328    -0.24000
F238        F  0.29472104  0.06923861  0.59427893    -0.18000
F239        F  0.15449952  0.90552923  0.56170407    -0.20500
F240        F  0.09816991  0.91434847  0.51662200    -0.21700
F241        F  0.10311882  0.95439685  0.57789133    -0.18900
F242        F  0.19444046  0.08731477  0.41212855    -0.18900
F243        F  0.24703219  0.03721555  0.40747304    -0.22800
F244        F  0.24918392  0.08792505  0.46005427    -0.24400
C245        C  0.78856162  0.03779323  0.45753984    -0.11200
C246        C  0.76737302  0.01487278  0.49081130     0.11400
C247        C  0.79200326  0.99110758  0.52158198    -0.03000
C248        C  0.83758513  0.99224379  0.51874077    -0.05700
C249        C  0.85925145  0.01527780  0.48559096    -0.16500
C250        C  0.83427790  0.03851404  0.45419157     0.02400
C251        C  0.71912911  0.01465253  0.49164068     0.12400
C252        C  0.77012825  0.96394300  0.55673598     0.63000
H253        H  0.85679421  0.97418615  0.54215652     0.12400
C254        C  0.85526266  0.06467782  0.41782243     0.55100
H255        H  0.76873103  0.05496880  0.43396756     0.08200
C256        C  0.69485397  0.04684572  0.51365611    -0.05600
C257        C  0.64942496  0.04214537  0.51634231    -0.06400
C258        C  0.62761274  0.00741673  0.49618475    -0.15900
C259        C  0.65198429  0.97717311  0.47101132    -0.01500
C260        C  0.69754248  0.98110125  0.46986827    -0.09100
C261        C  0.71680204  0.08654535  0.53304578     0.65200
H262        H  0.63052137  0.06583906  0.53416521     0.10600
C263        C  0.63046062  0.94176622  0.44414619     0.63600
H264        H  0.71695264  0.95768450  0.45218250     0.08000
F265        F  0.82496942  0.08863088  0.39455702    -0.19500
F266        F  0.87579962  0.03696858  0.38903283    -0.15700
F267        F  0.88518570  0.09346088  0.43497598    -0.19200
F268        F  0.74509878  0.93189057  0.53774932    -0.22600
F269        F  0.74373913  0.98985978  0.58219349    -0.24000
F270        F  0.80011753  0.94390743  0.58374233    -0.18000
F271        F  0.65978572  0.92134583  0.41677898    -0.20500
F272        F  0.59807202  0.95963315  0.41844790    -0.21700
F273        F  0.61289212  0.91043311  0.47128420    -0.18900
F274        F  0.68727665  0.11375766  0.55336219    -0.18900
F275        F  0.73705002  0.10994723  0.50035357    -0.22800
F276        F  0.74752768  0.07412732  0.56340521    -0.24400
C277        C  0.02278046  0.71317708  0.47181160    -0.11200
C278        C  0.98826523  0.73489753  0.49188715     0.11400
C279        C  0.95527381  0.71069888  0.51292069    -0.03000
C280        C  0.95894443  0.66500300  0.51443359    -0.05700
C281        C  0.99442538  0.64294461  0.49564923    -0.16500
C282        C  0.02690820  0.66760954  0.47351026     0.02400
C283        C  0.98817778  0.78323273  0.49065408     0.12400
C284        C  0.91638645  0.73318776  0.53345951     0.63000
H285        H  0.93409223  0.64610804  0.53079643     0.12400
C286        C  0.06564816  0.64657119  0.45113829     0.55100
H287        H  0.04713175  0.73266753  0.45535432     0.08200
C288        C  0.01358745  0.80795904  0.51986205    -0.05600
C289        C  0.01214971  0.85350165  0.51688204    -0.06400
C290        C  0.98787753  0.87503640  0.48465028    -0.15900
C291        C  0.96275769  0.85024419  0.45502768    -0.01500
C292        C  0.96347074  0.80448437  0.45860685    -0.09100
C293        C  0.04253596  0.78641497  0.55374301     0.65200
H294        H  0.03065208  0.87280990  0.53961973     0.10600
C295        C  0.93446875  0.87172318  0.42065918     0.63600
H296        H  0.94495105  0.78476134  0.43617503     0.08000
F297        F  0.08975035  0.67642226  0.42747494    -0.19500
F298        F  0.05152456  0.61487989  0.42260889    -0.15700
F299        F  0.09295065  0.62829440  0.48191099    -0.19200
F300        F  0.89297391  0.75496340  0.50178401    -0.22600
F301        F  0.93017511  0.76273925  0.56429650    -0.24000
F302        F  0.88878668  0.70388025  0.55367215    -0.18000
F303        F  0.90801795  0.84189795  0.39987131    -0.20500
F304        F  0.96044719  0.89132122  0.38957961    -0.21700
F305        F  0.90795276  0.90269961  0.43965535    -0.18900
F306        F  0.06327166  0.81667731  0.57974073    -0.18900
F307        F  0.07418870  0.76188921  0.53338761    -0.22800
F308        F  0.01805785  0.75968304  0.58037830    -0.24400
C309        C  0.03485373  0.30446512  0.52500504    -0.11200
C310        C  0.00481231  0.28246886  0.49886754     0.11400
C311        C  0.97178070  0.30601609  0.47711421    -0.03000
C312        C  0.97104309  0.35151826  0.48094392    -0.05700
C313        C  0.00244184  0.37400122  0.50517771    -0.16500
C314        C  0.03418473  0.35008893  0.52884247     0.02400
C315        C  0.00601185  0.23432020  0.49808161     0.12400
C316        C  0.93726631  0.28307656  0.45026521     0.63000
H317        H  0.94579404  0.36993306  0.46484255     0.12400
C318        C  0.06571175  0.37212497  0.55976711     0.55100
H319        H  0.05871166  0.28543042  0.54260758     0.08200
C320        C  0.03268720  0.21075038  0.46900280    -0.05600
C321        C  0.02888374  0.16512061  0.46798251    -0.06400
C322        C  0.00066942  0.14277193  0.49624461    -0.15900
C323        C  0.97540804  0.16660561  0.52670608    -0.01500
C324        C  0.97874181  0.21213548  0.52699110    -0.09100
C325        C  0.06543925  0.23369993  0.43995102     0.65200
H326        H  0.04854902  0.14640426  0.44557095     0.10600
C327        C  0.94418863  0.14460696  0.55816500     0.63600
H328        H  0.95957020  0.23114608  0.54959709     0.08000
F329        F  0.08764649  0.34222419  0.58542746    -0.19500
F330        F  0.04327900  0.39984692  0.58718210    -0.15700
F331        F  0.09626872  0.39549575  0.53647366    -0.19200
F332        F  0.91276691  0.25614205  0.47669002    -0.22600
F333        F  0.95668575  0.25841143  0.41815469    -0.24000
F334        F  0.90930942  0.31226554  0.43032780    -0.18000
F335        F  0.91825725  0.17444606  0.57967213    -0.20500
F336        F  0.96739690  0.12167773  0.58919321    -0.21700
F337        F  0.91706844  0.11657323  0.53588303    -0.18900
F338        F  0.08787335  0.20471298  0.41385314    -0.18900
F339        F  0.09537303  0.25545288  0.46536915    -0.22800
F340        F  0.04461508  0.26335013  0.41324852    -0.24400
C341        C  0.30567675  0.02661444  0.02943252    -0.11200
C342        C  0.28390857  0.99647685  0.00337685     0.11400
C343        C  0.30788447  0.96770203  0.97667807    -0.03000
C344        C  0.35358514  0.96981465  0.97747710    -0.05700
C345        C  0.37555079  0.99985556  0.00383469    -0.16500
C346        C  0.35126236  0.02827778  0.03087746     0.02400
C347        C  0.23576447  0.99599606  0.00476121     0.12400
C348        C  0.28516376  0.93517268  0.94740657     0.63000
H349        H  0.37256017  0.94830147  0.95715553     0.12400
C350        C  0.37315788  0.05795259  0.06345848     0.55100
H351        H  0.28647598  0.04840497  0.04924832     0.08200
C352        C  0.21257031  0.97411591  0.03799261    -0.05600
C353        C  0.16690150  0.97329959  0.03586885    -0.06400
C354        C  0.14406479  0.99498460  0.00264329    -0.15900
C355        C  0.16749058  0.01981222  0.97138878    -0.01500
C356        C  0.21317601  0.01920517  0.97270231    -0.09100
C357        C  0.23598426  0.95260252  0.07590822     0.65200
H358        H  0.14859579  0.95576157  0.06034919     0.10600
C359        C  0.14474639  0.04851739  0.93808617     0.63600
H360        H  0.23184954  0.03699901  0.94867128     0.08000
F361        F  0.34352281  0.07760683  0.09103050    -0.19500
F362        F  0.39587274  0.09042250  0.04215986    -0.15700
F363        F  0.40125967  0.03357563  0.08863853    -0.19200
F364        F  0.26062587  0.95704448  0.91666768    -0.22600
F365        F  0.25815652  0.90874745  0.97183998    -0.24000
F366        F  0.31448520  0.90881117  0.92572399    -0.18000
F367        F  0.17378851  0.07492581  0.91595102    -0.20500
F368        F  0.11502213  0.07521810  0.95875754    -0.21700
F369        F  0.12357373  0.02310179  0.90777977    -0.18900
F370        F  0.20745495  0.93115232  0.10339616    -0.18900
F371        F  0.25744156  0.98385615  0.09994623    -0.22800
F372        F  0.26588445  0.92264616  0.06081488    -0.24400
C373        C  0.71576270  0.03221737  0.01508831    -0.11200
C374        C  0.73595454  0.99316391  0.00340514     0.11400
C375        C  0.71042504  0.95637831  0.99335032    -0.03000
C376        C  0.66495964  0.96054514  0.99388341    -0.05700
C377        C  0.64419230  0.00003698  0.00432034    -0.16500
C378        C  0.67022988  0.03674570  0.01542622     0.02400
C379        C  0.78412662  0.99183334  0.00247254     0.12400
C380        C  0.73111891  0.91294032  0.98199019     0.63000
H381        H  0.64522198  0.93260166  0.98576574     0.12400
C382        C  0.65089960  0.08052407  0.02792940     0.55100
H383        H  0.73637027  0.05946955  0.02352083     0.08200
C384        C  0.80828977  0.00974539  0.96759401    -0.05600
C385        C  0.85392659  0.00795277  0.96941520    -0.06400
C386        C  0.87586650  0.98893233  0.00482122    -0.15900
C387        C  0.85135678  0.96967201  0.03903269    -0.01500
C388        C  0.80577719  0.97255334  0.03763019    -0.09100
C389        C  0.78593182  0.03081678  0.92879163     0.65200
H390        H  0.87290755  0.02215469  0.94333089     0.10600
C391        C  0.87265248  0.94469388  0.07608245     0.63600
H392        H  0.78643035  0.95954986  0.06408510     0.08000
F393        F  0.62933731  0.09842005  0.99267799    -0.19500
F394        F  0.68247413  0.10992629  0.04064159    -0.15700
F395        F  0.62241711  0.07536367  0.06239855    -0.19200
F396        F  0.75396926  0.89705621  0.01732783    -0.22600
F397        F  0.75922208  0.91800989  0.94725207    -0.24000
F398        F  0.70037473  0.88214212  0.97066453    -0.18000
F399        F  0.89387524  0.97318751  0.10349719    -0.20500
F400        F  0.90202572  0.91485080  0.05960641    -0.21700
F401        F  0.84244795  0.92192330  0.10057136    -0.18900
F402        F  0.81535854  0.04295925  0.89691681    -0.18900
F403        F  0.76386856  0.06767991  0.94194432    -0.22800
F404        F  0.75675999  0.00202388  0.91047046    -0.24400
C405        C  0.02019147  0.78512899  0.04442782    -0.11200
C406        C  0.99845494  0.76466796  0.01007795     0.11400
C407        C  0.97827492  0.79011944  0.97745753    -0.03000
C408        C  0.98290198  0.83556500  0.97897533    -0.05700
C409        C  0.00583144  0.85639615  0.01257909    -0.16500
C410        C  0.02421273  0.83075460  0.04653401     0.02400
C411        C  0.99768322  0.71636123  0.00892218     0.12400
C412        C  0.95172783  0.76933784  0.94140178     0.63000
H413        H  0.96796540  0.85539389  0.95389556     0.12400
C414        C  0.04876123  0.85085496  0.08431328     0.55100
H415        H  0.03434362  0.76474433  0.06953259     0.08200
C416        C  0.03284274  0.69204013  0.99206254    -0.05600
C417        C  0.02957275  0.64641558  0.99107624    -0.06400
C418        C  0.99246266  0.62438538  0.00641366    -0.15900
C419        C  0.95734287  0.64910258  0.02381948    -0.01500
C420        C  0.96098231  0.69477638  0.02504917    -0.09100
C421        C  0.07374101  0.71429699  0.97545515     0.65200
H422        H  0.05623494  0.62752128  0.97802569     0.10600
C423        C  0.91638162  0.62795933  0.04168462     0.63600
H424        H  0.93485842  0.71434002  0.03825718     0.08000
F425        F  0.06750730  0.81955368  0.11083792    -0.19500
F426        F  0.02054271  0.87500658  0.10961868    -0.18100
F427        F  0.08164734  0.87734455  0.06876441    -0.19200
F428        F  0.91666242  0.74749591  0.95913880    -0.22600
F429        F  0.97706501  0.74023576  0.91840781    -0.24000
F430        F  0.93580337  0.79996840  0.91237664    -0.18000
F431        F  0.88889712  0.65797958  0.06089584    -0.20500
F432        F  0.92719524  0.59731386  0.07291962    -0.21700
F433        F  0.89369197  0.60830649  0.00827814    -0.18900
F434        F  0.10318382  0.68482867  0.95842948    -0.18900
F435        F  0.09385938  0.73601215  0.00918817    -0.22800
F436        F  0.06331845  0.74382302  0.94308279    -0.24400
C437        C  0.98032670  0.19310457  0.96590320    -0.11200
C438        C  0.00837393  0.21629084  0.99319586     0.11400
C439        C  0.03639919  0.19358083  0.02186622    -0.03000
C440        C  0.03607893  0.14784550  0.02139337    -0.05700
C441        C  0.00833951  0.12445925  0.99378283    -0.16500
C442        C  0.97965116  0.14733612  0.96565735     0.02400
C443        C  0.00523174  0.26442402  0.99336973     0.12400
C444        C  0.06578834  0.21757253  0.05342789     0.63000
H445        H  0.05737035  0.12983483  0.04299718     0.12400
C446        C  0.94714483  0.12383490  0.93693593     0.55100
H447        H  0.95849274  0.21138627  0.94508088     0.08200
C448        C  0.02714313  0.29076108  0.96254233    -0.05600
C449        C  0.02338130  0.33625458  0.96591353    -0.06400
C450        C  0.99763985  0.35570921  0.99818030    -0.15900
C451        C  0.97501182  0.32919056  0.02843410    -0.01500
C452        C  0.97900699  0.28377332  0.02516240    -0.09100
C453        C  0.05396469  0.27088022  0.92616914     0.65200
H454        H  0.04020185  0.35716592  0.94295774     0.10600
C455        C  0.94826832  0.34862087  0.06505389     0.63600
H456        H  0.96198885  0.26272374  0.04784016     0.08000
F457        F  0.96881343  0.10131344  0.90467252    -0.19500
F458        F  0.91856644  0.15242699  0.91698747    -0.15700
F459        F  0.92293147  0.09508205  0.96172880    -0.19200
F460        F  0.04086844  0.24075538  0.08273349    -0.22600
F461        F  0.09245383  0.24605532  0.03106204    -0.24000
F462        F  0.09198028  0.18929130  0.07679988    -0.18000
F463        F  0.91294069  0.37069149  0.04811885    -0.20500
F464        F  0.97367011  0.37700626  0.08884592    -0.21700
F465        F  0.93273215  0.31699235  0.09320520    -0.18900
F466        F  0.07302676  0.30240894  0.90017587    -0.18900
F467        F  0.02767000  0.24554452  0.90008491    -0.22800
F468        F  0.08665337  0.24521401  0.94335026    -0.24400
loop_ 
_geom_bond_atom_site_label_1 
_geom_bond_atom_site_label_2 
_geom_bond_distance 
_geom_bond_site_symmetry_2 
_ccdc_geom_bond_type 
O1           Cu9   2.005   1_655  S
O1           C11   1.276       .  A
O2           Cu9   2.008       .  S
O2           C12   1.278       .  A
O3           Cu9   2.012   1_545  S
O3           C13   1.279   1_554  A
O4           Cu9   2.015       .  S
O4           C14   1.277       .  A
O5          Cu10   2.008       .  S
O5           C14   1.279   1_556  A
O6          Cu10   2.006   1_545  S
O6           C13   1.276       .  A
O7          Cu10   2.010       .  S
O7           C12   1.277   1_556  A
O8          Cu10   2.008   1_655  S
O8           C11   1.278   1_556  A
Cu9         Cu10   2.368   1_554  S
C11         C386   1.485       .  S
C12         C354   1.484       .  S
C13         C441   1.481       .  S
C14         C409   1.490       .  S
O15         Cu23   2.008   1_455  S
O15          C25   1.277       .  A
O16         Cu23   2.010       .  S
O16          C26   1.279       .  A
O17         Cu23   1.993   1_565  S
O17          C27   1.276       .  A
O18         Cu23   1.993       .  S
O18          C28   1.274       .  A
O19         Cu24   2.021       .  S
O19          C28   1.280       .  A
O20         Cu24   2.026   1_565  S
O20          C27   1.279       .  A
O21         Cu24   2.018       .  S
O21          C26   1.277       .  A
O22         Cu24   2.019   1_455  S
O22          C25   1.279       .  A
Cu23        Cu24   2.368       .  S
C25         C226   1.484       .  S
C26         C249   1.491       .  S
C27         C290   1.484       .  S
C28         C322   1.482   1_655  S
O29         Cu37   2.013       .  S
O29          C39   1.279   1_455  A
O30         Cu37   2.009       .  S
O30          C40   1.277   1_454  A
O31         Cu37   2.017   1_556  S
O31          C41   1.279   1_455  A
O32         Cu37   2.020       .  S
O32          C42   1.281   1_455  A
O33         Cu38   2.002       .  S
O33          C42   1.275       .  A
O34         Cu38   2.004   1_556  S
O34          C41   1.276       .  A
O35         Cu38   2.011   1_556  S
O35          C40   1.277       .  A
O36         Cu38   2.010       .  S
O36          C39   1.276       .  A
Cu37        Cu38   2.364   1_455  S
C39         C418   1.493       .  S
C40         C450   1.478       .  S
C41         C162   1.485       .  S
C42         C185   1.501       .  S
O43         Cu51   2.001       .  S
O43          C53   1.276       .  A
O44         Cu51   2.005       .  S
O44          C54   1.276   1_455  A
O45         Cu51   2.009       .  S
O45          C55   1.276       .  A
O46         Cu51   2.013       .  S
O46          C56   1.277   1_455  A
O47         Cu52   2.014       .  S
O47          C56   1.277       .  A
O48         Cu52   2.015       .  S
O48          C55   1.279   1_655  A
O49         Cu52   2.025       .  S
O49          C54   1.280       .  A
O50         Cu52   2.017       .  S
O50          C53   1.279   1_655  A
Cu51        Cu52   2.369   1_455  S
C53         C313   1.483       .  S
C54         C281   1.495       .  S
C55         C153   1.483       .  S
C56         C194   1.474       .  S
O57         Cu65   2.003       .  S
O57          C67   1.275       .  A
O58         Cu65   2.006       .  S
O58          C68   1.277   1_545  A
O59         Cu65   2.008       .  S
O59          C69   1.277       .  A
O60         Cu65   2.006   1_556  S
O60          C70   1.276   1_545  A
O61         Cu66   2.015   1_556  S
O61          C70   1.279       .  A
O62         Cu66   2.014       .  S
O62          C69   1.278   1_565  A
O63         Cu66   2.014       .  S
O63          C68   1.278       .  A
O64         Cu66   2.008       .  S
O64          C67   1.279   1_565  A
Cu65        Cu66   2.368   1_545  S
C67         C377   1.494       .  S
C68         C345   1.482       .  S
C69         C121   1.481       .  S
C70          C89   1.481       .  S
O71         Cu79   2.015       .  S
O71          C81   1.279   1_545  A
O72         Cu79   2.014       .  S
O72          C82   1.279       .  A
O73         Cu79   2.010       .  S
O73          C83   1.276       .  A
O74         Cu79   2.014       .  S
O74          C84   1.279   1_545  A
O75         Cu80   2.013       .  S
O75          C84   1.277       .  A
O76         Cu80   2.004       .  S
O76          C83   1.279   1_565  A
O77         Cu80   2.005       .  S
O77          C82   1.276   1_565  A
O78         Cu80   2.008       .  S
O78          C81   1.276       .  A
Cu79        Cu80   2.366   1_545  S
C81         C217   1.481       .  S
C82         C258   1.489       .  S
C83         C130   1.489       .  S
C84          C98   1.491       .  S
C85          C86   1.401   1_545  A
C85          C90   1.407       .  A
C85          H95   1.085       .  S
C86          C91   1.486       .  S
C86          C87   1.416       .  A
C87          C88   1.407       .  A
C87          C92   1.519       .  S
C88          C89   1.404       .  A
C88          H93   1.085       .  S
C89          C90   1.420   1_565  A
C90          C94   1.520       .  S
C91          C96   1.415   1_565  A
C91         C100   1.400       .  A
C92         F108   1.382       .  S
C92         F109   1.382       .  S
C92         F110   1.385       .  S
C94         F105   1.382       .  S
C94         F106   1.385       .  S
C94         F107   1.384       .  S
C96          C97   1.407       .  A
C96         C101   1.520       .  S
C97          C98   1.407   1_545  A
C97         H102   1.083       .  S
C98          C99   1.424       .  A
C99         C100   1.409       .  A
C99         C103   1.520       .  S
C100        H104   1.083       .  S
C101        F114   1.384       .  S
C101        F115   1.382       .  S
C101        F116   1.382       .  S
C103        F111   1.385       .  S
C103        F112   1.384       .  S
C103        F113   1.383       .  S
C117        C118   1.402   1_565  A
C117        C122   1.407       .  A
C117        H127   1.085       .  S
C118        C123   1.484       .  S
C118        C119   1.415       .  A
C119        C120   1.404       .  A
C119        C124   1.520       .  S
C120        C121   1.403       .  A
C120        H125   1.083       .  S
C121        C122   1.418   1_545  A
C122        C126   1.518       .  S
C123        C128   1.414   1_545  A
C123        C132   1.400       .  A
C124        F140   1.381       .  S
C124        F141   1.383       .  S
C124        F142   1.385       .  S
C126        F137   1.382       .  S
C126        F138   1.385       .  S
C126        F139   1.384       .  S
C128        C129   1.405       .  A
C128        C133   1.520       .  S
C129        C130   1.407   1_565  A
C129        H134   1.082       .  S
C130        C131   1.424       .  A
C131        C132   1.408       .  A
C131        C135   1.520       .  S
C132        H136   1.083       .  S
C133        F146   1.385       .  S
C133        F147   1.382       .  S
C133        F148   1.382       .  S
C135        F143   1.385       .  S
C135        F144   1.383       .  S
C135        F145   1.383       .  S
C149        C150   1.402       .  A
C149        C154   1.408       .  A
C149        H159   1.084       .  S
C150        C155   1.484       .  S
C150        C151   1.416   1_455  A
C151        C152   1.407       .  A
C151        C156   1.521       .  S
C152        C153   1.405   1_655  A
C152        H157   1.084       .  S
C153        C154   1.419       .  A
C154        C158   1.519       .  S
C155        C160   1.415       .  A
C155        C164   1.400   1_455  A
C156        F172   1.382       .  S
C156        F173   1.382       .  S
C156        F174   1.384       .  S
C158        F169   1.382       .  S
C158        F170   1.384       .  S
C158        F171   1.384       .  S
C160        C161   1.409       .  A
C160        C165   1.519       .  S
C161        C162   1.406   1_455  A
C161        H166   1.083       .  S
C162        C163   1.421       .  A
C163        C164   1.406       .  A
C163        C167   1.520       .  S
C164        H168   1.084       .  S
C165        F178   1.385       .  S
C165        F179   1.382       .  S
C165        F180   1.382       .  S
C167        F175   1.385       .  S
C167        F176   1.384       .  S
C167        F177   1.382       .  S
C181        C182   1.398       .  A
C181        C186   1.409       .  A
C181        H191   1.082       .  S
C182        C187   1.484       .  S
C182        C183   1.411   1_655  A
C183        C184   1.407       .  A
C183        C188   1.520       .  S
C184        C185   1.412   1_455  A
C184        H189   1.081       .  S
C185        C186   1.431       .  A
C186        C190   1.522       .  S
C187        C192   1.417       .  A
C187        C196   1.400       .  A
C188        F204   1.383       .  S
C188        F205   1.382       .  S
C188        F206   1.384       .  S
C190        F201   1.383       .  S
C190        F202   1.385       .  S
C190        F203   1.383       .  S
C192        C193   1.409       .  A
C192        C197   1.519       .  S
C193        C194   1.401       .  A
C193        H198   1.084       .  S
C194        C195   1.415       .  A
C195        C196   1.405       .  A
C195        C199   1.515   1_655  S
C196        H200   1.084       .  S
C197        F210   1.384       .  S
C197        F211   1.383       .  S
C197        F212   1.382   1_655  S
C199        F207   1.384       .  S
C199        F208   1.381   1_455  S
C199        F209   1.383       .  S
C213        C214   1.401   1_565  A
C213        C218   1.407       .  A
C213        H223   1.084       .  S
C214        C219   1.485       .  S
C214        C215   1.416       .  A
C215        C216   1.407       .  A
C215        C220   1.519       .  S
C216        C217   1.404   1_545  A
C216        H221   1.084       .  S
C217        C218   1.420       .  A
C218        C222   1.520       .  S
C219        C224   1.416       .  A
C219        C228   1.400   1_545  A
C220        F236   1.382       .  S
C220        F237   1.382       .  S
C220        F238   1.385       .  S
C222        F233   1.385       .  S
C222        F234   1.382       .  S
C222        F235   1.383       .  S
C224        C225   1.409       .  A
C224        C229   1.520       .  S
C225        C226   1.405       .  A
C225        H230   1.083       .  S
C226        C227   1.420   1_545  A
C227        C228   1.407       .  A
C227        C231   1.518       .  S
C228        H232   1.083       .  S
C229        F242   1.384       .  S
C229        F243   1.382       .  S
C229        F244   1.382       .  S
C231        F239   1.384       .  S
C231        F240   1.382       .  S
C231        F241   1.382       .  S
C245        C246   1.401       .  A
C245        C250   1.410       .  A
C245        H255   1.083       .  S
C246        C251   1.485       .  S
C246        C247   1.414   1_545  A
C247        C248   1.406       .  A
C247        C252   1.521       .  S
C248        C249   1.407   1_565  A
C248        H253   1.083       .  S
C249        C250   1.424       .  A
C250        C254   1.519       .  S
C251        C256   1.413       .  A
C251        C260   1.400   1_545  A
C252        F268   1.382       .  S
C252        F269   1.382       .  S
C252        F270   1.384       .  S
C254        F265   1.385       .  S
C254        F266   1.383       .  S
C254        F267   1.383       .  S
C256        C257   1.408       .  A
C256        C261   1.519       .  S
C257        C258   1.407       .  A
C257        H262   1.082       .  S
C258        C259   1.424   1_545  A
C259        C260   1.407       .  A
C259        C263   1.521       .  S
C260        H264   1.083       .  S
C261        F274   1.384       .  S
C261        F275   1.383       .  S
C261        F276   1.381       .  S
C263        F271   1.385       .  S
C263        F272   1.384       .  S
C263        F273   1.383       .  S
C277        C278   1.398   1_455  A
C277        C282   1.407       .  A
C277        H287   1.084       .  S
C278        C283   1.486       .  S
C278        C279   1.414       .  A
C279        C280   1.410       .  A
C279        C284   1.519       .  S
C280        C281   1.409       .  A
C280        H285   1.083       .  S
C281        C282   1.426   1_655  A
C282        C286   1.521       .  S
C283        C288   1.415   1_655  A
C283        C292   1.404       .  A
C284        F300   1.382       .  S
C284        F301   1.382       .  S
C284        F302   1.384       .  S
C286        F297   1.385       .  S
C286        F298   1.384       .  S
C286        F299   1.383       .  S
C288        C289   1.403       .  A
C288        C293   1.521       .  S
C289        C290   1.405   1_455  A
C289        H294   1.081       .  S
C290        C291   1.419       .  A
C291        C292   1.411       .  A
C291        C295   1.518       .  S
C292        H296   1.083       .  S
C293        F306   1.385       .  S
C293        F307   1.382       .  S
C293        F308   1.382       .  S
C295        F303   1.385       .  S
C295        F304   1.382       .  S
C295        F305   1.384       .  S
C309        C310   1.401       .  A
C309        C314   1.408       .  A
C309        H319   1.082       .  S
C310        C315   1.481       .  S
C310        C311   1.414   1_455  A
C311        C312   1.404       .  A
C311        C316   1.521       .  S
C312        C313   1.404   1_655  A
C312        H317   1.080       .  S
C313        C314   1.421       .  A
C314        C318   1.520       .  S
C315        C320   1.414       .  A
C315        C324   1.398   1_455  A
C316        F332   1.382       .  S
C316        F333   1.382       .  S
C316        F334   1.384       .  S
C318        F329   1.385       .  S
C318        F330   1.384       .  S
C318        F331   1.382       .  S
C320        C321   1.408       .  A
C320        C325   1.519       .  S
C321        C322   1.406       .  A
C321        H326   1.083       .  S
C322        C323   1.422   1_455  A
C323        C324   1.404       .  A
C323        C327   1.520       .  S
C324        H328   1.084       .  S
C325        F338   1.385       .  S
C325        F339   1.383       .  S
C325        F340   1.382       .  S
C327        F335   1.385       .  S
C327        F336   1.383       .  S
C327        F337   1.384       .  S
C341        C342   1.398   1_545  A
C341        C346   1.404       .  A
C341        H351   1.082       .  S
C342        C347   1.482       .  S
C342        C343   1.415   1_554  A
C343        C344   1.408       .  A
C343        C348   1.519       .  S
C344        C345   1.405   1_556  A
C344        H349   1.082       .  S
C345        C346   1.420   1_565  A
C346        C350   1.516       .  S
C347        C352   1.415       .  A
C347        C356   1.399   1_564  A
C348        F364   1.382       .  S
C348        F365   1.382       .  S
C348        F366   1.384       .  S
C350        F361   1.384       .  S
C350        F362   1.382       .  S
C350        F363   1.380       .  S
C352        C353   1.407       .  A
C352        C357   1.520       .  S
C353        C354   1.406       .  A
C353        H358   1.083       .  S
C354        C355   1.422   1_564  A
C355        C356   1.406       .  A
C355        C359   1.520       .  S
C356        H360   1.083       .  S
C357        F370   1.384       .  S
C357        F371   1.383       .  S
C357        F372   1.382       .  S
C359        F367   1.385       .  S
C359        F368   1.384       .  S
C359        F369   1.382       .  S
C373        C374   1.399   1_545  A
C373        C378   1.408       .  A
C373        H383   1.083       .  S
C374        C379   1.483       .  S
C374        C375   1.413   1_554  A
C375        C376   1.405       .  A
C375        C380   1.520       .  S
C376        C377   1.409   1_566  A
C376        H381   1.082       .  S
C377        C378   1.427       .  A
C378        C382   1.521       .  S
C379        C384   1.415   1_564  A
C379        C388   1.400       .  A
C380        F396   1.382   1_556  S
C380        F397   1.382       .  S
C380        F398   1.384       .  S
C382        F393   1.383   1_554  S
C382        F394   1.385       .  S
C382        F395   1.384       .  S
C384        C385   1.406       .  A
C384        C389   1.520       .  S
C385        C386   1.406   1_546  A
C385        H390   1.083       .  S
C386        C387   1.422       .  A
C387        C388   1.406       .  A
C387        C391   1.520       .  S
C388        H392   1.083       .  S
C389        F402   1.384       .  S
C389        F403   1.382       .  S
C389        F404   1.383       .  S
C391        F399   1.382       .  S
C391        F400   1.384       .  S
C391        F401   1.385       .  S
C405        C406   1.402   1_455  A
C405        C410   1.410       .  A
C405        H415   1.084       .  S
C406        C411   1.486       .  S
C406        C407   1.413   1_554  A
C407        C408   1.405       .  A
C407        C412   1.520       .  S
C408        C409   1.408   1_656  A
C408        H413   1.084       .  S
C409        C410   1.423       .  A
C410        C414   1.519       .  S
C411        C416   1.414   1_654  A
C411        C420   1.400       .  A
C412        F428   1.382       .  S
C412        F429   1.382       .  S
C412        F430   1.385       .  S
C414        F425   1.385       .  S
C414        F426   1.383       .  S
C414        F427   1.383       .  S
C416        C417   1.407       .  A
C416        C421   1.520       .  S
C417        C418   1.408   1_456  A
C417        H422   1.082       .  S
C418        C419   1.425       .  A
C419        C420   1.409       .  A
C419        C423   1.520       .  S
C420        H424   1.083       .  S
C421        F434   1.384       .  S
C421        F435   1.382   1_556  S
C421        F436   1.382       .  S
C423        F431   1.385       .  S
C423        F432   1.384       .  S
C423        F433   1.383       .  S
C437        C438   1.401   1_655  A
C437        C442   1.407       .  A
C437        H447   1.084       .  S
C438        C443   1.483       .  S
C438        C439   1.415   1_556  A
C439        C440   1.406       .  A
C439        C444   1.520       .  S
C440        C441   1.404   1_554  A
C440        H445   1.084       .  S
C441        C442   1.420   1_455  A
C442        C446   1.519       .  S
C443        C448   1.415       .  A
C443        C452   1.401   1_456  A
C444        F460   1.382       .  S
C444        F461   1.382       .  S
C444        F462   1.384       .  S
C446        F457   1.382       .  S
C446        F458   1.385       .  S
C446        F459   1.383       .  S
C448        C449   1.407       .  A
C448        C453   1.519       .  S
C449        C450   1.404   1_455  A
C449        H454   1.085       .  S
C450        C451   1.418   1_556  A
C451        C452   1.405       .  A
C451        C455   1.518       .  S
C452        H456   1.085       .  S
C453        F466   1.385       .  S
C453        F467   1.382       .  S
C453        F468   1.382       .  S
C455        F463   1.382       .  S
C455        F464   1.383       .  S
C455        F465   1.385       .  S
