geometry optimzed in LAMMPS
_audit_creation_date              2020-11-30 
_audit_creation_method            'lammps2cif' 
_symmetry_space_group_name_H-M    'P1' 
_symmetry_Int_Tables_number       1 
_symmetry_cell_setting            triclinic 
loop_ 
_symmetry_equiv_pos_as_xyz 
  x,y,z 
_cell_length_a                    29.98979542 
_cell_length_b                    40.85059470265901 
_cell_length_c                    26.817698393123184 
_cell_angle_alpha                 90.1755721016545 
_cell_angle_beta                  89.48208361062723 
_cell_angle_gamma                 90.32760958434092 
loop_ 
_atom_site_label 
_atom_site_type_symbol 
_atom_site_fract_x 
_atom_site_fract_y 
_atom_site_fract_z 
_atom_site_charge 
C1          C  0.08722951  0.16393275  0.51165042     0.88200
C2          C  0.11888627  0.17180543  0.46773360    -0.52000
C3          C  0.13208639  0.20394118  0.46509039     0.11100
C4          C  0.11209045  0.22523966  0.50702511     0.22100
C5          C  0.11316328  0.17012500  0.05627636    -0.52700
C6          C  0.12575473  0.20239295  0.05651760     0.11300
C7          C  0.04843637  0.18779702  0.50670310    -0.52300
C8          C  0.05696260  0.21599730  0.01185534     0.11800
H9          H  0.13289925  0.15314489  0.44384721     0.16300
H10         H  0.12371015  0.25099559  0.50509888     0.02100
H11         H  0.12395356  0.15242590  0.08361765     0.16600
H12         H  0.01425523  0.17916583  0.50665169     0.16400
C13         C  0.99747467  0.30278387  0.51159318     0.88200
C14         C  0.47368906  0.28460915  0.45721037    -0.52000
C15         C  0.45941141  0.25295094  0.46124052     0.11100
C16         C  0.47690396  0.23528044  0.50799969     0.22100
C17         C  0.47820456  0.28632016  0.04524660    -0.52700
C18         C  0.46510776  0.25420923  0.04523843     0.11300
C19         C  0.03794849  0.27981414  0.50877112    -0.52300
C20         C  0.02353407  0.24338544  0.01071196     0.11800
H21         H  0.46328865  0.30077477  0.42744651     0.16300
H22         H  0.46437172  0.20982519  0.51141444     0.02100
H23         H  0.46837069  0.30360734  0.07411122     0.16600
H24         H  0.07167432  0.28873722  0.51390092     0.16400
Zn25       Zn  0.28226719  0.25601496  0.19849063     1.49700
Zn26       Zn  0.25945724  0.18996705  0.25617630     1.49400
Zn27       Zn  0.36034365  0.21131760  0.24374204     1.49100
Zn28       Zn  0.29329196  0.25133925  0.31827346     1.49500
O29         O  0.29917879  0.22755236  0.25415982    -1.82400
O30         O  0.22717439  0.23844482  0.16161310    -0.73000
O31         O  0.29130716  0.14708698  0.25231398    -0.72800
O32         O  0.38719211  0.22750049  0.17797731    -0.72400
O33         O  0.21616294  0.19129936  0.20110466    -0.73000
O34         O  0.33337760  0.25929856  0.14889992    -0.72600
O35         O  0.36239313  0.16150824  0.24364573    -0.73200
O36         O  0.35102454  0.24663489  0.35711519    -0.72600
O37         O  0.22208988  0.18983991  0.31732898    -0.73400
O38         O  0.39908271  0.22703610  0.30052861    -0.72800
O39         O  0.24045401  0.23413926  0.36087291    -0.73200
O40         O  0.28417471  0.30034131  0.30517309    -0.73100
O41         O  0.27196154  0.30237924  0.22350059    -0.72900
C42         C  0.20586920  0.21153574  0.16741537     0.78900
C43         C  0.33218654  0.13957618  0.24738288     0.79400
C44         C  0.37220689  0.24698862  0.14512136     0.78300
C45         C  0.39048203  0.23865410  0.34370751     0.78700
C46         C  0.21637201  0.20859054  0.35457470     0.79800
C47         C  0.27545560  0.31654738  0.26581736     0.78900
C48         C  0.32825686  0.04470592  0.24485180     0.88200
C49         C  0.35578852  0.03425142  0.28979893    -0.52000
C50         C  0.36818701  0.00214687  0.28846148     0.11100
C51         C  0.36124390  0.48501892  0.24227790     0.22100
C52         C  0.35668925  0.03577219  0.19925732    -0.52700
C53         C  0.36947828  0.00378248  0.19808798     0.11300
C54         C  0.28883062  0.02055332  0.24377752    -0.52300
C55         C  0.31010079  0.48988640  0.23757682     0.11800
H56         H  0.36494193  0.05079679  0.31985351     0.16300
H57         H  0.37272226  0.45929219  0.24241972     0.02100
H58         H  0.36647901  0.05333608  0.17079655     0.16600
H59         H  0.25472632  0.02902923  0.24428530     0.16400
C60         C  0.24611842  0.40698883  0.23162471     0.88200
C61         C  0.21528382  0.41766614  0.27468815    -0.52000
C62         C  0.20445146  0.45023887  0.27364705     0.11100
C63         C  0.22521124  0.46882529  0.22989201     0.22100
C64         C  0.22141582  0.41760470  0.18456228    -0.52700
C65         C  0.20953433  0.44989700  0.18394589     0.11300
C66         C  0.28672809  0.43004103  0.23458075    -0.52300
C67         C  0.27618670  0.46276394  0.23374918     0.11800
H68         H  0.20189266  0.40068013  0.30212040     0.16300
H69         H  0.21443641  0.49464424  0.22924091     0.02100
H70         H  0.21133892  0.39997481  0.15655004     0.16600
H71         H  0.32042118  0.42085306  0.23727379     0.16400
Zn72       Zn  0.09912320  0.44915772  0.49215505     1.49700
Zn73       Zn  0.05590520  0.00573804  0.04728925     1.49400
Zn74       Zn  0.06344227  0.00311740  0.44319869     1.49100
Zn75       Zn  0.48141119  0.46243836  0.48278451     1.49500
O76         O  0.05387624  0.48241075  0.49370899    -1.82400
O77         O  0.11690969  0.43983084  0.04011780    -0.73000
O78         O  0.06776129  0.05307329  0.02658653    -0.72800
O79         O  0.10772735  0.48918891  0.38355463    -0.72400
O80         O  0.10450189  0.48498818  0.08432240    -0.73000
O81         O  0.13640891  0.45159702  0.43308528    -0.72600
O82         O  0.07488628  0.05060390  0.45496906    -0.73200
O83         O  0.45403815  0.47773517  0.41791972    -0.72600
O84         O  0.00274364  0.00762684  0.09170759    -0.73400
O85         O  0.01357257  0.00081439  0.39548037    -0.72800
O86         O  0.45312882  0.48258355  0.04536773    -0.73200
O87         O  0.47490878  0.41289588  0.48679668    -0.73100
O88         O  0.07524368  0.40405310  0.48953218    -0.72900
C89         C  0.12618023  0.45864145  0.07619807     0.78900
C90         C  0.06905726  0.06973392  0.49185515     0.79400
C91         C  0.13643054  0.46697894  0.39242209     0.78300
C92         C  0.47037907  0.49366037  0.38117441     0.78700
C93         C  0.46196131  0.49452765  0.08808026     0.79800
C94         C  0.03650599  0.39206039  0.49451167     0.78900
C95         C  0.17273627  0.46608394  0.30872319    -0.14700
C96         C  0.17031451  0.45636820  0.35606739    -0.29900
H97         H  0.15166629  0.48570186  0.29549247     0.14300
H98         H  0.19332121  0.43774968  0.36876263     0.14900
C99         C  0.17711698  0.46430500  0.14854336    -0.14700
C100        C  0.16291063  0.44806281  0.10818502    -0.29900
H101        H  0.16272346  0.48794054  0.15773640     0.14300
H102        H  0.17811781  0.42501711  0.09770508     0.14900
C103        C  0.44171505  0.50398404  0.33987973    -0.14700
C104        C  0.40237084  0.48992716  0.32928213    -0.29900
H105        H  0.45340492  0.52441052  0.31725334     0.14300
H106        H  0.38631455  0.96477834  0.34468253     0.14900
C107        C  0.42438189  0.50449384  0.12011567    -0.14700
C108        C  0.41818749  0.49282607  0.16640342    -0.29900
H109        H  0.40018838  0.52108370  0.10426331     0.14900
H110        H  0.39199638  0.96724735  0.14212649     0.14900
C111        C  0.26946284  0.35268900  0.26945904    -0.14700
C112        C  0.25626333  0.37048267  0.23002726    -0.29900
H113        H  0.27470811  0.36467841  0.30513369     0.14300
H114        H  0.25012174  0.35772094  0.19513331     0.14900
C115        C  0.34509627  0.10472969  0.24606183    -0.14700
C116        C  0.31472270  0.08028970  0.24636770    -0.29900
H117        H  0.38040020  0.09888332  0.24443196     0.14300
H118        H  0.27938558  0.08604387  0.24744484     0.14900
C119        C  0.42562780  0.23919583  0.42688491    -0.14700
C120        C  0.42789936  0.24507850  0.37763285    -0.29900
H121        H  0.39752720  0.22573863  0.44257316     0.14300
H122        H  0.45785396  0.25610948  0.36175089     0.14900
C123        C  0.43547614  0.24029767  0.08471717    -0.14700
C124        C  0.40064123  0.25748822  0.10269259    -0.29900
H125        H  0.44202488  0.21583216  0.09844422     0.14300
H126        H  0.39238152  0.28067113  0.08537441     0.14900
C127        C  0.00671023  0.33871821  0.52026863    -0.14700
C128        C  0.03166629  0.35643086  0.48884478    -0.29900
H129        H  0.55876481  0.33605959  0.00297981     0.14300
H130        H  0.04989480  0.34434734  0.45887994     0.14900
C131        C  0.16710004  0.21644304  0.42977409    -0.14700
C132        C  0.18048463  0.19905952  0.38973715    -0.29900
H133        H  0.18233702  0.24010148  0.43733578     0.14300
H134        H  0.16373633  0.17626156  0.38067820     0.14900
C135        C  0.16855673  0.20193571  0.13506190    -0.14700
C136        C  0.15816027  0.21690289  0.09227982    -0.29900
H137        H  0.15048883  0.18008143  0.14631494     0.14300
H138        H  0.17533562  0.23935165  0.08178440     0.14900
C139        C  0.07827415  0.10487942  0.48338399    -0.14700
C140        C  0.07236157  0.12836657  0.51805736    -0.29900
H141        H  0.09058954  0.11110235  0.44654731     0.14300
H142        H  0.05817469  0.11531486  0.04990880     0.14900
C143        C  0.08518004  0.15987420  0.01136699     0.88200
C144        C  0.11397135  0.17024983  0.96612438    -0.52000
C145        C  0.12626183  0.20253987  0.96599607     0.11100
C146        C  0.10845145  0.22147392  0.01151304     0.22100
C147        C  0.11280575  0.17583583  0.55726703    -0.52700
C148        C  0.12648149  0.20789944  0.55518450     0.11300
C149        C  0.04533895  0.18344950  0.01183679    -0.52300
C150        C  0.06068071  0.22016327  0.50412705     0.11800
H151        H  0.12703966  0.15311888  0.93914190     0.16300
H152        H  0.12020642  0.24715644  0.01190824     0.02100
H153        H  0.12133900  0.15903364  0.58679960     0.16600
H154        H  0.01113902  0.17474142  0.01173751     0.16400
C155        C  0.99849514  0.29959418  0.99912042     0.88200
C156        C  0.48250723  0.28566551  0.95472836    -0.52000
C157        C  0.46929582  0.25362274  0.95439645     0.11100
C158        C  0.48399130  0.23431443  0.00075304     0.22100
C159        C  0.47619578  0.28889810  0.54772123    -0.52700
C160        C  0.46216597  0.25717648  0.55197654     0.11300
C161        C  0.03664105  0.27533695  0.00476468    -0.52300
C162        C  0.02702970  0.24732712  0.50205187     0.11800
H163        H  0.47468641  0.30263867  0.92498711     0.16300
H164        H  0.47219575  0.20858171  0.00041602     0.02100
H165        H  0.46907912  0.30749005  0.57567670     0.16600
H166        H  0.07096439  0.28340109  0.00222129     0.16400
Zn167      Zn  0.28038847  0.26208151  0.70154083     1.49700
Zn168      Zn  0.25688285  0.19542265  0.75777085     1.49400
Zn169      Zn  0.35762012  0.21976016  0.75594885     1.49100
Zn170      Zn  0.28142583  0.25814130  0.82024306     1.49500
O171        O  0.29470237  0.23396084  0.75867314    -1.82400
O172        O  0.22621899  0.24504923  0.66264835    -0.73000
O173        O  0.29151451  0.15339396  0.75376918    -0.72800
O174        O  0.38825271  0.23758899  0.69269979    -0.72400
O175        O  0.21578517  0.19722300  0.70053833    -0.73000
O176        O  0.33309292  0.26403590  0.65518565    -0.72600
O177        O  0.36203798  0.17024125  0.75259353    -0.73200
O178        O  0.33462486  0.25696546  0.86393619    -0.72600
O179        O  0.21660494  0.19356742  0.81723307    -0.73400
O180        O  0.38979779  0.23441845  0.81956876    -0.72800
O181        O  0.22753298  0.23982105  0.85917315    -0.73200
O182        O  0.27433648  0.30629897  0.80615243    -0.73100
O183        O  0.27222683  0.30926991  0.72349757    -0.72900
C184        C  0.20556371  0.21778054  0.66720035     0.78900
C185        C  0.33308208  0.14732020  0.75202350     0.79400
C186        C  0.37327383  0.25427342  0.65630778     0.78300
C187        C  0.37508610  0.24834584  0.85912635     0.78700
C188        C  0.20686595  0.21272714  0.85303662     0.79800
C189        C  0.27230509  0.32298704  0.76626770     0.78900
C190        C  0.33658473  0.05239940  0.74689656     0.88200
C191        C  0.36533423  0.04322727  0.79182544    -0.52000
C192        C  0.38087136  0.01191712  0.79009465     0.11100
C193        C  0.37397782  0.48919122  0.74764857     0.22100
C194        C  0.36533813  0.04450219  0.70066969    -0.52700
C195        C  0.38097395  0.01318846  0.69978945     0.11300
C196        C  0.29916042  0.02667766  0.74647046    -0.52300
C197        C  0.32299334  0.49609751  0.74980856     0.11800
H198        H  0.37466637  0.06051642  0.82082648     0.16300
H199        H  0.38368259  0.46310268  0.74621126     0.02100
H200        H  0.37477673  0.06262109  0.67289269     0.16600
H201        H  0.26439273  0.03359899  0.74775424     0.16400
C202        C  0.25532255  0.41519915  0.73700378     0.88200
C203        C  0.22423548  0.42346865  0.78064050    -0.52000
C204        C  0.21447549  0.45599942  0.78521688     0.11100
C205        C  0.23656333  0.47728006  0.74469216     0.22100
C206        C  0.23170497  0.42917959  0.69162273    -0.52700
C207        C  0.22117404  0.46165671  0.69562966     0.11300
C208        C  0.29659674  0.43709305  0.74388018    -0.52300
C209        C  0.28737172  0.47000333  0.74735315     0.11800
H210        H  0.20921136  0.40447663  0.80343259     0.16300
H211        H  0.22696787  0.50333081  0.74771786     0.02100
H212        H  0.22089869  0.41365893  0.66108228     0.16600
H213        H  0.32985950  0.42697489  0.74449910     0.16400
Zn214      Zn  0.07627238  0.44072155  0.98319767     1.49700
Zn215      Zn  0.04695546  0.01193277  0.55990977     1.49400
Zn216      Zn  0.05396543  0.00224735  0.92851982     1.49100
Zn217      Zn  0.49054288  0.46262715  0.99073588     1.49500
O218        O  0.03973661  0.47922996  0.98451880    -1.82400
O219        O  0.14078740  0.45326081  0.54749539    -0.73000
O220        O  0.05653643  0.05899036  0.53448314    -0.72800
O221        O  0.11044338  0.48857717  0.88946922    -0.72400
O222        O  0.12264794  0.49867116  0.58844259    -0.73000
O223        O  0.11676344  0.43983464  0.92500517    -0.72600
O224        O  0.06804056  0.04916547  0.94394428    -0.73200
O225        O  0.46685515  0.47807949  0.92431299    -0.72600
O226        O  0.98649715  0.00846966  0.59399625    -0.73400
O227        O  0.99890029  0.00471843  0.88781982    -0.72800
O228        O  0.44620187  0.48204303  0.54029517    -0.73200
O229        O  0.48206104  0.41333354  0.99398432    -0.73100
O230        O  0.04099686  0.39962264  0.98453394    -0.72900
C231        C  0.14771271  0.47384094  0.58195956     0.78900
C232        C  0.07104192  0.06614498  0.98356830     0.79400
C233        C  0.12904108  0.46071818  0.89278271     0.78300
C234        C  0.48332894  0.49781248  0.89231601     0.78700
C235        C  0.45755786  0.49604276  0.58080516     0.79800
C236        C  0.99947934  0.39339703  0.98436595     0.78900
C237        C  0.18091532  0.46907559  0.82109361    -0.14700
C238        C  0.16582702  0.45113176  0.85959853    -0.29900
H239        H  0.16739503  0.49326788  0.81455075     0.14300
H240        H  0.18048071  0.42758014  0.86761066     0.14900
C241        C  0.19048000  0.47817564  0.66067771    -0.14700
C242        C  0.18583491  0.46694864  0.61405539    -0.29900
H243        H  0.16877650  0.49730367  0.67491358     0.14300
H244        H  0.20874273  0.44854199  0.59998456     0.14900
C245        C  0.45681629  0.50865068  0.84972868    -0.14700
C246        C  0.42183732  0.49197928  0.83129690    -0.29900
H247        H  0.46653099  0.53182424  0.83289159     0.14300
H248        H  0.44508518  0.98887252  0.80800184     0.14900
C249        C  0.42252501  0.50545571  0.61677438    -0.14700
C250        C  0.42242843  0.49510039  0.66426874    -0.29900
H251        H  0.39644283  0.52164465  0.60392195     0.14900
H252        H  0.44545924  0.99059492  0.67968212     0.14900
C253        C  0.27084907  0.35908060  0.77062636    -0.14700
C254        C  0.26389400  0.37874784  0.73133207    -0.29900
H255        H  0.27398878  0.36972173  0.80762294     0.14300
H256        H  0.25960145  0.36772800  0.69473068     0.14900
C257        C  0.34853185  0.11304074  0.74946426    -0.14700
C258        C  0.32016835  0.08736120  0.74858186    -0.29900
H259        H  0.38424985  0.10866382  0.74857528     0.14300
H260        H  0.28443161  0.09161268  0.74942246     0.14900
C261        C  0.44050216  0.24021661  0.91450218    -0.14700
C262        C  0.40514859  0.25758935  0.89983232    -0.29900
H263        H  0.44733194  0.21624869  0.89868357     0.14300
H264        H  0.39669412  0.27987311  0.92003247     0.14900
C265        C  0.43459910  0.24533965  0.59467200    -0.14700
C266        C  0.40273380  0.26438563  0.61479167    -0.29900
H267        H  0.43878903  0.22039867  0.60763644     0.14300
H268        H  0.39573089  0.28792142  0.59785592     0.14900
C269        C  0.01366140  0.33447452  0.99232195    -0.14700
C270        C  0.98444539  0.35912094  0.98754559    -0.29900
H271        H  0.55353620  0.33630397  0.49467974     0.14300
H272        H  0.94885377  0.35396712  0.98759897     0.14900
C273        C  0.15897157  0.21713467  0.92978876    -0.14700
C274        C  0.17075978  0.20189208  0.88711464    -0.29900
H275        H  0.17470654  0.24025597  0.93949877     0.14300
H276        H  0.15401637  0.17944197  0.87631770     0.14900
C277        C  0.16871980  0.20816832  0.63423992    -0.14700
C278        C  0.15818962  0.22304240  0.59131828    -0.29900
H279        H  0.15099817  0.18624139  0.64563037     0.14300
H280        H  0.17521173  0.24553042  0.58072672     0.14900
C281        C  0.07897813  0.10166129  0.97790112    -0.14700
C282        C  0.07234491  0.12370287  0.01472951    -0.29900
H283        H  0.08915234  0.10946236  0.94103407     0.14300
H284        H  0.05689197  0.12178843  0.55348022     0.14900
C285        C  0.09180335  0.66422269  0.51340546     0.88200
C286        C  0.12486071  0.67170270  0.47136301    -0.52000
C287        C  0.13599082  0.70407360  0.46675746     0.11100
C288        C  0.11283167  0.72609669  0.50567187     0.22100
C289        C  0.11978222  0.66980294  0.06864003    -0.52700
C290        C  0.13295063  0.70184715  0.06498501     0.11300
C291        C  0.05166035  0.68638356  0.50402208    -0.52300
C292        C  0.06941245  0.71215418  0.01024712     0.11800
H293        H  0.13986606  0.65222451  0.44959641     0.16300
H294        H  0.12311508  0.75210156  0.50268223     0.02100
H295        H  0.12796340  0.65399231  0.09957255     0.16600
H296        H  0.01818198  0.67649255  0.50185461     0.16400
C297        C  0.99586331  0.80078162  0.49644440     0.88200
C298        C  0.47614126  0.78424930  0.46364894    -0.52000
C299        C  0.46343033  0.75220738  0.46618074     0.11100
C300        C  0.48195141  0.73393218  0.51146843     0.22100
C301        C  0.47599833  0.78916838  0.04602210    -0.52700
C302        C  0.46239269  0.75735893  0.04952763     0.11300
C303        C  0.03702285  0.77840318  0.49466754    -0.52300
C304        C  0.03639117  0.73926589  0.00368319     0.11800
H305        H  0.46465959  0.80073025  0.43480640     0.16300
H306        H  0.47030967  0.70820048  0.51336666     0.02100
H307        H  0.46864237  0.80736937  0.07450613     0.16600
H308        H  0.07043691  0.78815483  0.48996873     0.16400
Zn309      Zn  0.28550583  0.75705763  0.20706878     1.49700
Zn310      Zn  0.26555393  0.69004698  0.26169705     1.49400
Zn311      Zn  0.36499159  0.71298415  0.24915673     1.49100
Zn312      Zn  0.29842971  0.75104594  0.32505320     1.49500
O313        O  0.30395538  0.72806746  0.26080027    -1.82400
O314        O  0.23056715  0.74033993  0.17105804    -0.73000
O315        O  0.29826946  0.64774977  0.25415933    -0.72800
O316        O  0.39017710  0.73125005  0.18478207    -0.72400
O317        O  0.22026591  0.69262739  0.20908956    -0.73000
O318        O  0.33509105  0.76251895  0.15733857    -0.72600
O319        O  0.36891519  0.66343497  0.24632019    -0.73200
O320        O  0.35572010  0.74564978  0.36358461    -0.72600
O321        O  0.22973310  0.68829530  0.32342317    -0.73400
O322        O  0.40376046  0.72797930  0.30554252    -0.72800
O323        O  0.24572280  0.73351593  0.36607394    -0.73200
O324        O  0.28915217  0.79999997  0.31411920    -0.73100
O325        O  0.27394538  0.80210658  0.23323305    -0.72900
C326        C  0.20912361  0.71359280  0.17685568     0.78900
C327        C  0.33935977  0.64099543  0.24870886     0.79400
C328        C  0.37424776  0.75105725  0.15302913     0.78300
C329        C  0.39518787  0.73846409  0.34929571     0.78700
C330        C  0.22291644  0.70737687  0.36000249     0.79800
C331        C  0.27839910  0.81607694  0.27539301     0.78900
C332        C  0.33752388  0.54629091  0.24246393     0.88200
C333        C  0.36183598  0.53589641  0.28976971    -0.52000
C334        C  0.37441098  0.50386027  0.28964601     0.11100
C335        C  0.35192366  0.98341436  0.24234146     0.22100
C336        C  0.36905057  0.53734122  0.19942446    -0.52700
C337        C  0.38219817  0.50533895  0.19957577     0.11300
C338        C  0.29839691  0.52229457  0.23785638    -0.52300
C339        C  0.30083152  0.98814815  0.24270582     0.11800
H340        H  0.36947570  0.55260180  0.32015733     0.16300
H341        H  0.36376225  0.95780972  0.24135526     0.02100
H342        H  0.38191220  0.55531832  0.17316481     0.16600
H343        H  0.26455247  0.53101551  0.23517577     0.16400
C344        C  0.23987006  0.90421634  0.24466022     0.88200
C345        C  0.21394204  0.91359003  0.29187456    -0.52000
C346        C  0.20220048  0.94582215  0.29375907     0.11100
C347        C  0.21671225  0.96549897  0.24764515     0.22100
C348        C  0.20973870  0.91458663  0.20169665    -0.52700
C349        C  0.19749918  0.94679297  0.20298562     0.11300
C350        C  0.27957707  0.92805344  0.24240560    -0.52300
C351        C  0.26776998  0.96053436  0.24384281     0.11800
H352        H  0.20474889  0.89590129  0.32031258     0.16300
H353        H  0.20524725  0.99116364  0.24923592     0.02100
H354        H  0.19800097  0.89729782  0.17392852     0.16600
H355        H  0.31355501  0.91940130  0.23968685     0.16400
Zn356      Zn  0.09477372  0.94834455  0.51656058     1.49700
Zn357      Zn  0.05071317  0.50347503  0.04674585     1.49400
Zn358      Zn  0.05680041  0.50605406  0.42960340     1.49100
Zn359      Zn  0.47390462  0.96155300  0.48290460     1.49500
O360        O  0.04825840  0.98019445  0.50421161    -1.82400
O361        O  0.11847460  0.94015521  0.04975575    -0.73000
O362        O  0.06163506  0.55184884  0.03076719    -0.72800
O363        O  0.11532302  0.98325325  0.40745592    -0.72400
O364        O  0.10690414  0.98719099  0.08939720    -0.73000
O365        O  0.13614100  0.94344316  0.45808544    -0.72600
O366        O  0.06387170  0.55525553  0.44323124    -0.73200
O367        O  0.44709962  0.97503181  0.41652337    -0.72600
O368        O  0.99491229  0.50114494  0.09055226    -0.73400
O369        O  0.99790253  0.50023611  0.39407823    -0.72800
O370        O  0.45092249  0.97874542  0.07023030    -0.73200
O371        O  0.46989113  0.91162491  0.49078384    -0.73100
O372        O  0.07008845  0.90352740  0.52901345    -0.72900
C373        C  0.12685769  0.95977760  0.08519136     0.78900
C374        C  0.06944922  0.57220226  0.48285233     0.79400
C375        C  0.14002402  0.95899883  0.41736219     0.78300
C376        C  0.46289041  0.99249832  0.38106330     0.78700
C377        C  0.46583197  0.99764956  0.10414108     0.79800
C378        C  0.03304689  0.89046085  0.51766331     0.78900
C379        C  0.17542496  0.96056121  0.33442063    -0.14700
C380        C  0.17239587  0.94729014  0.38009072    -0.29900
H381        H  0.15694300  0.98260009  0.32585519     0.14300
H382        H  0.19211465  0.92604896  0.38961457     0.14900
C383        C  0.16698373  0.96215670  0.16636782    -0.14700
C384        C  0.16047952  0.94889670  0.12113144    -0.29900
H385        H  0.14931272  0.98423433  0.17716976     0.14300
H386        H  0.17936942  0.92748833  0.10996487     0.14900
C387        C  0.43477897  0.00241833  0.33927701    -0.14700
C388        C  0.39653853  0.98753503  0.32704196    -0.29900
H389        H  0.44565806  0.02374372  0.31811495     0.14300
H390        H  0.39129616  0.46794675  0.34850631     0.14900
C391        C  0.43670310  0.00739518  0.14597226    -0.14700
C392        C  0.39970215  0.99074026  0.15912742    -0.29900
H393        H  0.44567953  0.02948874  0.16634357     0.14900
H394        H  0.43999339  0.47388277  0.18042187     0.14900
C395        C  0.27083090  0.85177477  0.27921101    -0.14700
C396        C  0.25176029  0.86832262  0.24170634    -0.29900
H397        H  0.27932474  0.86438037  0.31359951     0.14300
H398        H  0.24204020  0.85502378  0.20832340     0.14900
C399        C  0.35331174  0.60644269  0.24574156    -0.14700
C400        C  0.32352256  0.58175341  0.24308558    -0.29900
H401        H  0.38875002  0.60103323  0.24615748     0.14300
H402        H  0.28812425  0.58723275  0.24184432     0.14900
C403        C  0.42994385  0.73842227  0.43197446    -0.14700
C404        C  0.43259688  0.74445220  0.38296889    -0.29900
H405        H  0.40170527  0.72506192  0.44753913     0.14300
H406        H  0.46263561  0.75548198  0.36731168     0.14900
C407        C  0.43542121  0.74469194  0.09166841    -0.14700
C408        C  0.40172895  0.76228464  0.11077673    -0.29900
H409        H  0.44178529  0.72013247  0.10516430     0.14300
H410        H  0.39303176  0.78548563  0.09378139     0.14900
C411        C  0.00410944  0.83712405  0.49065044    -0.14700
C412        C  0.02854836  0.85466327  0.52275281    -0.29900
H413        H  0.55272405  0.83759177  0.99291958     0.14300
H414        H  0.04683322  0.84233632  0.55196724     0.14900
C415        C  0.17131335  0.71636120  0.43210563    -0.14700
C416        C  0.18705950  0.69775660  0.39460824    -0.29900
H417        H  0.18468759  0.74082426  0.43791282     0.14300
H418        H  0.17203893  0.67413193  0.38684183     0.14900
C419        C  0.17066514  0.70518446  0.14602298    -0.14700
C420        C  0.16355974  0.71792021  0.10082381    -0.29900
H421        H  0.15009946  0.68515322  0.15958398     0.14300
H422        H  0.18356809  0.73849425  0.08786902     0.14900
C423        C  0.07222875  0.60843006  0.47892853    -0.14700
C424        C  0.08178340  0.62780219  0.51837152    -0.29900
H425        H  0.06843541  0.61935663  0.44233971     0.14300
H426        H  0.08946280  0.60853753  0.06296742     0.14900
C427        C  0.09663936  0.65651342  0.02235603     0.88200
C428        C  0.12968069  0.66344780  0.97963537    -0.52000
C429        C  0.14190695  0.69562359  0.97545905     0.11100
C430        C  0.12045298  0.71770390  0.01525639     0.22100
C431        C  0.11391051  0.67866002  0.55998622    -0.52700
C432        C  0.12557435  0.71104739  0.55577356     0.11300
C433        C  0.05741553  0.67971822  0.01378165    -0.52300
C434        C  0.06202393  0.71920579  0.50103059     0.11800
H435        H  0.14310950  0.64412021  0.95621874     0.16300
H436        H  0.13219491  0.74335187  0.01243147     0.02100
H437        H  0.12278522  0.66366899  0.59168633     0.16600
H438        H  0.02345676  0.67074730  0.01158939     0.16400
C439        C  0.00925048  0.79548533  0.99703896     0.88200
C440        C  0.47292179  0.78552912  0.95534251    -0.52000
C441        C  0.45895089  0.75375211  0.95917488     0.11100
C442        C  0.47704127  0.73596926  0.00535872     0.22100
C443        C  0.47864648  0.78651603  0.55420670    -0.52700
C444        C  0.46620267  0.75433459  0.55642908     0.11300
C445        C  0.04838913  0.77175460  0.00266882    -0.52300
C446        C  0.02720657  0.74554458  0.49946918     0.11800
H447        H  0.46155719  0.80185030  0.92624989     0.16300
H448        H  0.46442458  0.71054586  0.00855213     0.02100
H449        H  0.46965202  0.80427317  0.58275165     0.16600
H450        H  0.08232056  0.78056960  0.00594178     0.16400
Zn451      Zn  0.28072304  0.75897656  0.70232168     1.49700
Zn452      Zn  0.24902917  0.69330272  0.75291651     1.49400
Zn453      Zn  0.35256888  0.70803918  0.74568627     1.49100
Zn454      Zn  0.28994234  0.74909384  0.82178353     1.49500
O455        O  0.29359413  0.72777957  0.75582602    -1.82400
O456        O  0.22405753  0.74708557  0.66337824    -0.73000
O457        O  0.27409138  0.65011222  0.73238546    -0.72800
O458        O  0.38200782  0.72542161  0.68235851    -0.72400
O459        O  0.20151089  0.70318165  0.70531433    -0.73000
O460        O  0.33248728  0.76129015  0.65466492    -0.72600
O461        O  0.34711965  0.65835612  0.73967091    -0.73200
O462        O  0.34901937  0.74503222  0.85803600    -0.72600
O463        O  0.21833754  0.68724523  0.81790597    -0.73400
O464        O  0.39360891  0.72030081  0.80293618    -0.72800
O465        O  0.24075325  0.72881472  0.86528499    -0.73200
O466        O  0.27856284  0.79788818  0.81321561    -0.73100
O467        O  0.27490868  0.80439176  0.73092792    -0.72900
C468        C  0.19602087  0.72397946  0.67108326     0.78900
C469        C  0.31373332  0.63949237  0.73206124     0.79400
C470        C  0.37001947  0.74708782  0.65114712     0.78300
C471        C  0.38729262  0.73437844  0.84489312     0.78700
C472        C  0.21647025  0.70348576  0.85823177     0.79800
C473        C  0.27465311  0.81614618  0.77499794     0.78900
C474        C  0.35510146  0.55133782  0.75111371     0.88200
C475        C  0.38331831  0.53960159  0.79451957    -0.52000
C476        C  0.39350238  0.50722839  0.79294476     0.11100
C477        C  0.36545877  0.99243168  0.74437060     0.22100
C478        C  0.38104887  0.54132764  0.70415585    -0.52700
C479        C  0.39144742  0.50880936  0.70232090     0.11300
C480        C  0.31366684  0.52903180  0.75207151    -0.52300
C481        C  0.31367360  0.99490743  0.74517460     0.11800
H482        H  0.39429429  0.55566702  0.82441756     0.16300
H483        H  0.37923008  0.96734303  0.74317875     0.02100
H484        H  0.39251546  0.55885998  0.67643397     0.16600
H485        H  0.28035003  0.53901356  0.75389934     0.16400
C486        C  0.25897763  0.90861030  0.74503281     0.88200
C487        C  0.22567024  0.91807886  0.78630031    -0.52000
C488        C  0.21096937  0.94968775  0.78394731     0.11100
C489        C  0.23069151  0.96883819  0.73953261     0.22100
C490        C  0.23467024  0.91647863  0.69670370    -0.52700
C491        C  0.21931606  0.94770232  0.69373422     0.11300
C492        C  0.29644522  0.93424497  0.74787350    -0.52300
C493        C  0.28224406  0.96609475  0.74480369     0.11800
H494        H  0.21220845  0.90057178  0.81258109     0.16300
H495        H  0.21749474  0.99397488  0.73689170     0.02100
H496        H  0.22889943  0.89839106  0.66761425     0.16600
H497        H  0.33100448  0.92724007  0.75170410     0.16400
Zn498      Zn  0.08009543  0.94011654  0.99030841     1.49700
Zn499      Zn  0.06676460  0.51202009  0.54973294     1.49400
Zn500      Zn  0.05634972  0.50586589  0.92710689     1.49100
Zn501      Zn  0.47688402  0.96339749  0.00462779     1.49500
O502        O  0.04120822  0.97772162  0.98970676    -1.82400
O503        O  0.13051247  0.96066069  0.57546040    -0.73000
O504        O  0.07261333  0.55868531  0.52546581    -0.72800
O505        O  0.10517363  0.98348337  0.88688688    -0.72400
O506        O  0.09593715  0.00263612  0.61114695    -0.73000
O507        O  0.12180310  0.94009741  0.93253570    -0.72600
O508        O  0.06644498  0.55199657  0.94789406    -0.73200
O509        O  0.43837179  0.98146941  0.94986430    -0.72600
O510        O  0.01435673  0.51239083  0.59688279    -0.73400
O511        O  0.00566776  0.50889781  0.88011483    -0.72800
O512        O  0.43739742  0.98226407  0.53863565    -0.73200
O513        O  0.47245834  0.91377569  0.00190870    -0.73100
O514        O  0.04665638  0.89777859  0.99038208    -0.72900
C515        C  0.12714024  0.98152424  0.61052167     0.78900
C516        C  0.06654190  0.56697889  0.98942211     0.79400
C517        C  0.12880899  0.95826031  0.89496353     0.78300
C518        C  0.44768644  0.99391896  0.90754849     0.78700
C519        C  0.44781256  0.99565165  0.57997774     0.79800
C520        C  0.00548397  0.89025109  0.99075715     0.78900
C521        C  0.17587372  0.96319608  0.81784627    -0.14700
C522        C  0.16559676  0.94867472  0.86144036    -0.29900
H523        H  0.15792581  0.98486323  0.80629457     0.14300
H524        H  0.18495481  0.92801934  0.87406317     0.14900
C525        C  0.19240718  0.95759475  0.65043238    -0.14700
C526        C  0.15932187  0.97976758  0.65210842    -0.29900
H527        H  0.19672827  0.94275557  0.61703996     0.14300
H528        H  0.15343158  0.99430279  0.68545007     0.14900
C529        C  0.41087929  0.00209945  0.87387978    -0.14700
C530        C  0.41536842  0.99980064  0.82424449    -0.29900
H531        H  0.37956152  0.01035947  0.89009539     0.14300
H532        H  0.41385166  0.46750794  0.84442540     0.14900
C533        C  0.41164775  0.00484314  0.61493595    -0.14700
C534        C  0.41597078  0.00203741  0.66444989    -0.29900
H535        H  0.38040926  0.01344334  0.59966014     0.14900
H536        H  0.44627608  0.47678729  0.67591316     0.14900
C537        C  0.26828293  0.85171088  0.78217419    -0.14700
C538        C  0.27471150  0.87325486  0.74466255    -0.29900
H539        H  0.25743630  0.85981639  0.81877505     0.14300
H540        H  0.28970656  0.86455351  0.71005160     0.14900
C541        C  0.32052761  0.60420193  0.72433493    -0.14700
C542        C  0.34703453  0.58770298  0.75504687    -0.29900
H543        H  0.30095215  0.59123751  0.69660047     0.14300
H544        H  0.36364799  0.60123192  0.78463154     0.14900
C545        C  0.42292969  0.74038626  0.92736888    -0.14700
C546        C  0.42606039  0.74058783  0.87737397    -0.29900
H547        H  0.39252940  0.73181862  0.94551037     0.14300
H548        H  0.45767578  0.74691071  0.85966275     0.14900
C549        C  0.43671887  0.74106397  0.59618327    -0.14700
C550        C  0.40038987  0.75771799  0.61080463    -0.29900
H551        H  0.44353710  0.71700724  0.61133431     0.14300
H552        H  0.39228757  0.78045500  0.59205807     0.14900
C553        C  0.02267142  0.83119932  0.99584311    -0.14700
C554        C  0.99240415  0.85531388  0.99150834    -0.29900
H555        H  0.55316305  0.83747723  0.50252221     0.14300
H556        H  0.95717084  0.84913854  0.98916071     0.14900
C557        C  0.17464376  0.70834275  0.93824998    -0.14700
C558        C  0.18483643  0.69172660  0.89648724    -0.29900
H559        H  0.18952982  0.73225204  0.94478571     0.14300
H560        H  0.16804354  0.66875685  0.88839457     0.14900
C561        C  0.15699489  0.71866702  0.63926068    -0.14700
C562        C  0.15538721  0.72802529  0.59153766    -0.29900
H563        H  0.13199905  0.70159003  0.65331565     0.14300
H564        H  0.17957410  0.74552014  0.57696807     0.14900
C565        C  0.07203744  0.60281920  0.98789605    -0.14700
C566        C  0.08446570  0.62064622  0.02742963    -0.29900
H567        H  0.06877618  0.61473531  0.95192914     0.14300
H568        H  0.08657854  0.61656970  0.55458816     0.14900
C569        C  0.58809955  0.15602798  0.52072018     0.88200
C570        C  0.62171017  0.16302075  0.47858939    -0.52000
C571        C  0.63441196  0.19514014  0.47479924     0.11100
C572        C  0.61251849  0.21714973  0.51452882     0.22100
C573        C  0.62188611  0.17067608  0.06190279    -0.52700
C574        C  0.63444888  0.20281435  0.05721454     0.11300
C575        C  0.54909877  0.17944525  0.51189379    -0.52300
C576        C  0.56879852  0.21232343  0.00586673     0.11800
H577        H  0.63548753  0.14361120  0.45562872     0.16300
H578        H  0.62458192  0.24273962  0.51235025     0.02100
H579        H  0.63154976  0.15548499  0.09310427     0.16600
H580        H  0.51501041  0.17075975  0.50929881     0.16400
C581        C  0.50312461  0.29593436  0.50016253     0.88200
C582        C  0.97148318  0.29652877  0.46377967    -0.52000
C583        C  0.95962283  0.26468142  0.45639375     0.11100
C584        C  0.97580288  0.24152045  0.49793871     0.22100
C585        C  0.96898680  0.29473883  0.04524340    -0.52700
C586        C  0.95438273  0.26347050  0.05199892     0.11300
C587        C  0.54155468  0.27142289  0.50089307    -0.52300
C588        C  0.53527249  0.23931572  0.00297533     0.11800
H589        H  0.96069026  0.31612990  0.43945288     0.16300
H590        H  0.96465457  0.21592998  0.49233131     0.02100
H591        H  0.95868606  0.31480733  0.06934910     0.16600
H592        H  0.57591151  0.27947117  0.49825634     0.16400
Zn593      Zn  0.79269814  0.24813074  0.20333519     1.49700
Zn594      Zn  0.75153873  0.18607719  0.25891735     1.49400
Zn595      Zn  0.85579258  0.19459056  0.25830241     1.49100
Zn596      Zn  0.79226226  0.24222884  0.32422340     1.49500
O597        O  0.79885691  0.21839194  0.26096907    -1.82400
O598        O  0.73628559  0.23665043  0.16272683    -0.73000
O599        O  0.77235500  0.14143098  0.24122804    -0.72800
O600        O  0.89089237  0.20756655  0.19568209    -0.72400
O601        O  0.70711554  0.19690994  0.20922964    -0.73000
O602        O  0.84776650  0.24413304  0.15820916    -0.72600
O603        O  0.84527706  0.14547862  0.25373376    -0.73200
O604        O  0.84940838  0.23846521  0.36307154    -0.72600
O605        O  0.71793865  0.18279624  0.32236206    -0.73400
O606        O  0.89312353  0.20445001  0.32003573    -0.72800
O607        O  0.74007978  0.22521636  0.36781037    -0.73200
O608        O  0.78340583  0.29027206  0.31037854    -0.73100
O609        O  0.78759954  0.29566684  0.22779019    -0.72900
C610        C  0.70529455  0.21589776  0.17222451     0.78900
C611        C  0.81053060  0.12855478  0.24402725     0.79400
C612        C  0.88350467  0.22722385  0.15982996     0.78300
C613        C  0.88599662  0.22299713  0.35760284     0.78700
C614        C  0.71486323  0.20031391  0.36128477     0.79800
C615        C  0.78335282  0.30805306  0.27140993     0.78900
C616        C  0.84610264  0.03898685  0.25920901     0.88200
C617        C  0.87451575  0.02488826  0.30048007    -0.52000
C618        C  0.88465253  0.99267024  0.29480519     0.11100
C619        C  0.87318381  0.48455961  0.24653763     0.22100
C620        C  0.87131984  0.03148379  0.21084096    -0.52700
C621        C  0.88119010  0.99911322  0.20416614     0.11300
C622        C  0.80450271  0.01695797  0.25782610    -0.52300
C623        C  0.82133956  0.48705402  0.24766319     0.11800
H624        H  0.88592967  0.03935924  0.33201945     0.16300
H625        H  0.88686696  0.45943168  0.24543901     0.02100
H626        H  0.87979522  0.05037630  0.18394442     0.16600
H627        H  0.77125938  0.02689159  0.26163403     0.16400
C628        C  0.76440614  0.40141724  0.24572065     0.88200
C629        C  0.73568671  0.41038086  0.29172286    -0.52000
C630        C  0.72147997  0.44219115  0.29246385     0.11100
C631        C  0.73789581  0.46207783  0.24758048     0.22100
C632        C  0.73527181  0.41101485  0.20144454    -0.52700
C633        C  0.72063459  0.44275204  0.20254284     0.11300
C634        C  0.80284640  0.42642305  0.24540054    -0.52300
C635        C  0.78947736  0.45848787  0.24671185     0.11800
H636        H  0.72499831  0.39264524  0.31907304     0.16300
H637        H  0.72497347  0.48735275  0.24829099     0.02100
H638        H  0.72608211  0.39325340  0.17325623     0.16600
H639        H  0.83742244  0.41891058  0.24448233     0.16400
Zn640      Zn  0.58073985  0.43735632  0.49109135     1.49700
Zn641      Zn  0.55624141  0.00655801  0.05306471     1.49400
Zn642      Zn  0.55305020  0.00268902  0.42886578     1.49100
Zn643      Zn  0.99592129  0.46023139  0.50410017     1.49500
O644        O  0.54430138  0.47597981  0.48726871    -1.82400
O645        O  0.62695888  0.43433604  0.05876516    -0.73000
O646        O  0.56740184  0.05285219  0.02944815    -0.72800
O647        O  0.61532934  0.47842647  0.39066354    -0.72400
O648        O  0.61118424  0.47748071  0.10620441    -0.73000
O649        O  0.62126725  0.43223971  0.43321611    -0.72600
O650        O  0.56218414  0.04987779  0.44718550    -0.73200
O651        O  0.95431871  0.47350063  0.44837673    -0.72600
O652        O  0.50500613  0.00976965  0.10199909    -0.73400
O653        O  0.50244053  0.00373473  0.38161465    -0.72800
O654        O  0.94262757  0.48392805  0.03764575    -0.73200
O655        O  0.00252652  0.41013930  0.50249529    -0.73100
O656        O  0.54490116  0.39662401  0.49557409    -0.72900
C657        C  0.63353635  0.45150207  0.09744344     0.78900
C658        C  0.56061256  0.06571587  0.48805419     0.79400
C659        C  0.63340527  0.45066320  0.39766743     0.78300
C660        C  0.96010665  0.48833999  0.40703481     0.78700
C661        C  0.95421621  0.49520225  0.07992813     0.79800
C662        C  0.50353465  0.39029301  0.49230405     0.78900
C663        C  0.68815426  0.45598711  0.32817944    -0.14700
C664        C  0.66905337  0.43832635  0.36474234    -0.29900
H665        H  0.67766640  0.48110786  0.32261490     0.14300
H666        H  0.67935332  0.41340534  0.37155081     0.14900
C667        C  0.68674553  0.45685201  0.16827470    -0.14700
C668        C  0.66787460  0.43931746  0.13159832    -0.29900
H669        H  0.67632440  0.48195913  0.17439366     0.14300
H670        H  0.67862547  0.41452759  0.12434904     0.14900
C671        C  0.92139502  0.49337776  0.37444502    -0.14700
C672        C  0.92549183  0.49334680  0.32461957    -0.29900
H673        H  0.88911797  0.49808666  0.39167108     0.14300
H674        H  0.90460551  0.95275102  0.34707867     0.14900
C675        C  0.91898210  0.50293273  0.11642582    -0.14700
C676        C  0.92151386  0.49416358  0.16443512    -0.29900
H677        H  0.88968573  0.51566573  0.10319304     0.14900
H678        H  0.90117533  0.96140524  0.14784543     0.14900
C679        C  0.77662057  0.34369169  0.27840587    -0.14700
C680        C  0.77925458  0.36576750  0.24116870    -0.29900
H681        H  0.76865652  0.35149092  0.31602220     0.14300
H682        H  0.79083106  0.35764667  0.20468083     0.14900
C683        C  0.81405111  0.09309868  0.23630963    -0.14700
C684        C  0.83852254  0.07506144  0.26706035    -0.29900
H685        H  0.79508068  0.08149813  0.20673308     0.14300
H686        H  0.85498459  0.08717286  0.29811429     0.14900
C687        C  0.92575200  0.25664665  0.41823383    -0.14700
C688        C  0.92131358  0.22754800  0.39535525    -0.29900
H689        H  0.90400581  0.27651475  0.40714177     0.14300
H690        H  0.94489349  0.20803556  0.40221650     0.14900
C691        C  0.91884113  0.25683024  0.08968159    -0.14700
C692        C  0.91760137  0.23046140  0.11941953    -0.29900
H693        H  0.89478532  0.27624338  0.09614973     0.14300
H694        H  0.94355923  0.21210489  0.11610954     0.14900
C695        C  0.51795956  0.33112160  0.49614650    -0.14700
C696        C  0.48858288  0.35592269  0.49490560    -0.29900
H697        H  0.04924947  0.33963697  0.99247369     0.14300
H698        H  0.45299990  0.35072950  0.49575950     0.14900
C699        C  0.66883912  0.20748800  0.43884497    -0.14700
C700        C  0.68075856  0.19021891  0.39818559    -0.29900
H701        H  0.68403902  0.23124464  0.44573084     0.14300
H702        H  0.66363998  0.16743945  0.38980197     0.14900
C703        C  0.66664919  0.21096277  0.13978193    -0.14700
C704        C  0.66591083  0.21924171  0.09166705    -0.29900
H705        H  0.64030683  0.19519393  0.15440099     0.14300
H706        H  0.69115755  0.23556774  0.07623013     0.14900
C707        C  0.56540120  0.10169020  0.48565467    -0.14700
C708        C  0.57581571  0.12008904  0.52547635    -0.29900
H709        H  0.56334871  0.11315798  0.44924880     0.14300
H710        H  0.59210160  0.10916832  0.05736712     0.14900
C711        C  0.59711494  0.15694429  0.01657148     0.88200
C712        C  0.62843625  0.16399228  0.97245286    -0.52000
C713        C  0.64055500  0.19620947  0.96787953     0.11100
C714        C  0.61998907  0.21825872  0.00816462     0.22100
C715        C  0.61086790  0.16910123  0.56752848    -0.52700
C716        C  0.62427760  0.20110276  0.56430433     0.11300
C717        C  0.55729945  0.17984739  0.00976749    -0.52300
C718        C  0.56137168  0.21185057  0.50919024     0.11800
H719        H  0.64075903  0.14450703  0.94870561     0.16300
H720        H  0.63150786  0.24391130  0.00473567     0.02100
H721        H  0.61854631  0.15325815  0.59859666     0.16600
H722        H  0.52330294  0.17077481  0.00963348     0.16400
C723        C  0.50836392  0.29564682  0.00115695     0.88200
C724        C  0.97130890  0.28638275  0.95556215    -0.52000
C725        C  0.95670099  0.25495104  0.96187422     0.11100
C726        C  0.97163679  0.23936096  0.01149709     0.22100
C727        C  0.96816722  0.28859236  0.55298016    -0.52700
C728        C  0.95659094  0.25666036  0.54602020     0.11300
C729        C  0.54734856  0.27169200  0.00328336    -0.52300
C730        C  0.52849789  0.23931776  0.50520697     0.11800
H731        H  0.96246022  0.30125398  0.92365880     0.16300
H732        H  0.95894071  0.21404930  0.01654700     0.02100
H733        H  0.95719095  0.30265883  0.58525391     0.16600
H734        H  0.58140592  0.28037407  0.00522975     0.16400
Zn735      Zn  0.77939074  0.25483094  0.70146046     1.49700
Zn736      Zn  0.76122991  0.18803793  0.75619765     1.49400
Zn737      Zn  0.86056021  0.21165665  0.74327790     1.49100
Zn738      Zn  0.79376553  0.24919082  0.81907850     1.49500
O739        O  0.79916836  0.22623762  0.75505543    -1.82400
O740        O  0.72183512  0.23923069  0.66986458    -0.73000
O741        O  0.79425090  0.14656174  0.74527600    -0.72800
O742        O  0.88311590  0.22771820  0.67625193    -0.72400
O743        O  0.71286498  0.19104449  0.70686087    -0.73000
O744        O  0.82574809  0.25634712  0.64779968    -0.72600
O745        O  0.86517102  0.16213352  0.74219679    -0.73200
O746        O  0.85149697  0.24460968  0.85700777    -0.72600
O747        O  0.73015783  0.18366821  0.82055905    -0.73400
O748        O  0.90022515  0.22804333  0.79898245    -0.72800
O749        O  0.74320305  0.22995430  0.86182612    -0.73200
O750        O  0.78440955  0.29820741  0.80753435    -0.73100
O751        O  0.77294408  0.30117563  0.72586447    -0.72900
C752        C  0.70047284  0.21247372  0.67592272     0.78900
C753        C  0.83545891  0.13976955  0.74223325     0.79400
C754        C  0.86492174  0.24506231  0.64272167     0.78300
C755        C  0.89124757  0.23815639  0.84295718     0.78700
C756        C  0.72340126  0.20234702  0.85757695     0.79800
C757        C  0.77681096  0.31487815  0.76835335     0.78900
C758        C  0.83196976  0.04520524  0.74144726     0.88200
C759        C  0.85747197  0.03593293  0.78848283    -0.52000
C760        C  0.86956657  0.00373618  0.79033752     0.11100
C761        C  0.85983691  0.48524145  0.73680335     0.22100
C762        C  0.86166334  0.03463667  0.69776516    -0.52700
C763        C  0.87393367  0.00250170  0.69920639     0.11300
C764        C  0.79215946  0.02166731  0.74024643    -0.52300
C765        C  0.80869377  0.48960844  0.73523049     0.11800
H766        H  0.86501560  0.05345233  0.81779607     0.16300
H767        H  0.87180630  0.45967096  0.73803658     0.02100
H768        H  0.87366701  0.05166033  0.66959269     0.16600
H769        H  0.75842186  0.03066818  0.73787987     0.16400
C770        C  0.74791841  0.40542075  0.73744348     0.88200
C771        C  0.72184639  0.41441988  0.78474030    -0.52000
C772        C  0.70998002  0.44664637  0.78753738     0.11100
C773        C  0.72463043  0.46675203  0.74189002     0.22100
C774        C  0.71764729  0.41622477  0.69491351    -0.52700
C775        C  0.70514477  0.44838544  0.69707645     0.11300
C776        C  0.78760265  0.42935318  0.73555723    -0.52300
C777        C  0.77573808  0.46184665  0.73749690     0.11800
H778        H  0.71205135  0.39621205  0.81206217     0.16300
H779        H  0.71314865  0.49240059  0.74414041     0.02100
H780        H  0.70546005  0.39906074  0.66721271     0.16600
H781        H  0.82160232  0.42082661  0.73201785     0.16400
Zn782      Zn  0.58864966  0.43665248  0.99966961     1.49700
Zn783      Zn  0.54482837  0.00334420  0.54843288     1.49400
Zn784      Zn  0.54556594  0.00238470  0.93283744     1.49100
Zn785      Zn  0.97724764  0.46548429  0.97951760     1.49500
O786        O  0.55297202  0.47583197  0.00030055    -1.82400
O787        O  0.62089585  0.43955753  0.54857472    -0.73000
O788        O  0.55477311  0.05129002  0.52980674    -0.72800
O789        O  0.62264058  0.48357203  0.90488609    -0.72400
O790        O  0.60661370  0.48584520  0.58921547    -0.73000
O791        O  0.62967247  0.43518267  0.94140579    -0.72600
O792        O  0.55699412  0.05056010  0.94736997    -0.73200
O793        O  0.94956229  0.48136143  0.91544879    -0.72600
O794        O  0.48824761  0.00220557  0.59107269    -0.73400
O795        O  0.48769493  0.00059392  0.89439209    -0.72800
O796        O  0.96627930  0.47495246  0.56914106    -0.73200
O797        O  0.97067377  0.41610130  0.98229755    -0.73100
O798        O  0.55180475  0.39604724  0.99920239    -0.72900
C799        C  0.62886848  0.45949051  0.58369314     0.78900
C800        C  0.56499581  0.06676888  0.98705051     0.79400
C801        C  0.64056722  0.45546040  0.90766373     0.78300
C802        C  0.96558966  0.49875545  0.88015824     0.78700
C803        C  0.97746011  0.49700389  0.60051811     0.79800
C804        C  0.51020079  0.39024927  0.99712295     0.78900
C805        C  0.68180445  0.46070873  0.82789727    -0.14700
C806        C  0.67403411  0.44487948  0.87090708    -0.29900
H807        H  0.66569552  0.48398421  0.82099308     0.14300
H808        H  0.69074400  0.42204737  0.87880190     0.14900
C809        C  0.67278049  0.46347014  0.66226925    -0.14700
C810        C  0.66505261  0.45016674  0.61737521    -0.29900
H811        H  0.65421070  0.48481988  0.67449389     0.14300
H812        H  0.68504503  0.42964817  0.60478604     0.14900
C813        C  0.93727551  0.50936542  0.83910135    -0.14700
C814        C  0.90230425  0.49209407  0.82254888    -0.29900
H815        H  0.94636080  0.53220555  0.82081373     0.14300
H816        H  0.89247929  0.96401366  0.84093870     0.14900
C817        C  0.94659152  0.50713900  0.64075774    -0.14700
C818        C  0.90990261  0.49032992  0.65458638    -0.29900
H819        H  0.95398000  0.53024626  0.65923112     0.14900
H820        H  0.93101699  0.97087292  0.67797607     0.14900
C821        C  0.77240745  0.35095465  0.77238913    -0.14700
C822        C  0.75945682  0.36931895  0.73342031    -0.29900
H823        H  0.77805114  0.36240393  0.80840592     0.14300
H824        H  0.75282457  0.35718946  0.69810630     0.14900
C825        C  0.84910015  0.10517163  0.73996920    -0.14700
C826        C  0.81878547  0.08074746  0.73998017    -0.29900
H827        H  0.88445140  0.09950297  0.73984592     0.14300
H828        H  0.78346368  0.08651601  0.73978208     0.14900
C829        C  0.92443990  0.23992547  0.92697015    -0.14700
C830        C  0.92823116  0.24454162  0.87745319    -0.29900
H831        H  0.89567063  0.22711435  0.94241953     0.14300
H832        H  0.95869910  0.25504625  0.86196683     0.14900
C833        C  0.92713721  0.23962456  0.58192576    -0.14700
C834        C  0.89016760  0.25478477  0.59810487    -0.29900
H835        H  0.93730524  0.21631587  0.59733314     0.14300
H836        H  0.87938847  0.27694107  0.57944063     0.14900
C837        C  0.52320006  0.33096293  0.00115089    -0.14700
C838        C  0.49437505  0.35598946  0.99827094    -0.29900
H839        H  0.99070574  0.35097976  0.55166910     0.14300
H840        H  0.45877305  0.35109170  0.99630427     0.14900
C841        C  0.67348702  0.20917031  0.93103411    -0.14700
C842        C  0.69142599  0.19042849  0.89512291    -0.29900
H843        H  0.68301185  0.23480150  0.93360910     0.14300
H844        H  0.68119755  0.16513976  0.89087879     0.14900
C845        C  0.66123194  0.20446893  0.64600900    -0.14700
C846        C  0.65439672  0.21712647  0.60068890    -0.29900
H847        H  0.64065939  0.18438979  0.65947537     0.14300
H848        H  0.67469176  0.23758521  0.58779364     0.14900
C849        C  0.57132700  0.10263160  0.98330424    -0.14700
C850        C  0.58558616  0.12093973  0.02190063    -0.29900
H851        H  0.56592749  0.11413482  0.94738753     0.14300
H852        H  0.57964295  0.10826732  0.56142395     0.14900
C853        C  0.59490457  0.65608834  0.51041960     0.88200
C854        C  0.62532343  0.66532955  0.46604182    -0.52000
C855        C  0.63758233  0.69762621  0.46456385     0.11100
C856        C  0.61823877  0.71769675  0.50826234     0.22100
C857        C  0.61310311  0.66676160  0.05620370    -0.52700
C858        C  0.62763607  0.69863310  0.05506117     0.11300
C859        C  0.55533750  0.67961557  0.50797714    -0.52300
C860        C  0.56119367  0.71265163  0.00595267     0.11800
H861        H  0.63946623  0.64742817  0.44087319     0.16300
H862        H  0.62963852  0.74350066  0.50769706     0.02100
H863        H  0.62091743  0.64940963  0.08521268     0.16600
H864        H  0.52129183  0.67068069  0.50784003     0.16400
C865        C  0.50519001  0.79542138  0.50705991     0.88200
C866        C  0.96563153  0.78758913  0.45547079    -0.52000
C867        C  0.95525931  0.75529374  0.46009215     0.11100
C868        C  0.97642226  0.73880446  0.50550732     0.22100
C869        C  0.97734851  0.78694696  0.04000226    -0.52700
C870        C  0.96459180  0.75480204  0.04110646     0.11300
C871        C  0.54487976  0.77181509  0.50626241    -0.52300
C872        C  0.52854216  0.74024710  0.00265562     0.11800
H873        H  0.95220263  0.80275028  0.42600554     0.16300
H874        H  0.96629719  0.71285048  0.50949527     0.02100
H875        H  0.96655206  0.80475777  0.06766625     0.16600
H876        H  0.57889167  0.78066659  0.50364185     0.16400
Zn877      Zn  0.78349262  0.75409839  0.19692441     1.49700
Zn878      Zn  0.76413695  0.68695046  0.25366310     1.49400
Zn879      Zn  0.86362938  0.71138291  0.24065655     1.49100
Zn880      Zn  0.79506570  0.74805376  0.31621838     1.49500
O881        O  0.80178207  0.72546806  0.25167050    -1.82400
O882        O  0.72929352  0.73542382  0.15989422    -0.73000
O883        O  0.79896051  0.64516769  0.25249017    -0.72800
O884        O  0.88927864  0.72853906  0.17517701    -0.72400
O885        O  0.72292351  0.68680603  0.19652272    -0.73000
O886        O  0.83400407  0.75925263  0.14689028    -0.72600
O887        O  0.86872740  0.66204696  0.24063685    -0.73200
O888        O  0.85190264  0.74282988  0.35533236    -0.72600
O889        O  0.72464020  0.68653441  0.31371884    -0.73400
O890        O  0.90153170  0.72713560  0.29765259    -0.72800
O891        O  0.74225163  0.73059264  0.35808591    -0.73200
O892        O  0.78623393  0.79683651  0.30454065    -0.73100
O893        O  0.77171825  0.79976890  0.22337804    -0.72900
C894        C  0.71082475  0.70728380  0.16388996     0.78900
C895        C  0.84025399  0.63915694  0.24664704     0.79400
C896        C  0.87328083  0.74780784  0.14266756     0.78300
C897        C  0.89184281  0.73661492  0.34170146     0.78700
C898        C  0.71836239  0.70505586  0.35118342     0.79800
C899        C  0.77624393  0.81336626  0.26597842     0.78900
C900        C  0.84418902  0.54451460  0.24907262     0.88200
C901        C  0.87347066  0.53561775  0.29360248    -0.52000
C902        C  0.88908635  0.50431377  0.29200275     0.11100
C903        C  0.86444294  0.97716116  0.24735837     0.22100
C904        C  0.87230557  0.53654116  0.20263974    -0.52700
C905        C  0.88811221  0.50530206  0.20162106     0.11300
C906        C  0.80691717  0.51884486  0.24922195    -0.52300
C907        C  0.81360303  0.98426896  0.25100660     0.11800
H908        H  0.88346357  0.55318270  0.32193571     0.16300
H909        H  0.87391028  0.95122360  0.24224105     0.02100
H910        H  0.88098594  0.55462073  0.17450678     0.16600
H911        H  0.77227911  0.52600547  0.25018582     0.16400
C912        C  0.74575000  0.90388058  0.23760242     0.88200
C913        C  0.71521179  0.91302800  0.28143685    -0.52000
C914        C  0.70550423  0.94576610  0.28431137     0.11100
C915        C  0.72727448  0.96606108  0.24247764     0.22100
C916        C  0.72172014  0.91697332  0.19176681    -0.52700
C917        C  0.71117533  0.94951312  0.19423393     0.11300
C918        C  0.78704187  0.92573640  0.24315130    -0.52300
C919        C  0.77795037  0.95860203  0.24575518     0.11800
H920        H  0.70131867  0.89458840  0.30611799     0.16300
H921        H  0.71810424  0.99225108  0.24429644     0.02100
H922        H  0.71097577  0.90071959  0.16218133     0.16600
H923        H  0.82017880  0.91549173  0.24510392     0.16400
Zn924      Zn  0.57386943  0.93951030  0.48882189     1.49700
Zn925      Zn  0.56143804  0.49872988  0.06445495     1.49400
Zn926      Zn  0.56251695  0.49938383  0.42693523     1.49100
Zn927      Zn  0.99109486  0.95676250  0.49478145     1.49500
O928        O  0.53574121  0.97717374  0.48750387    -1.82400
O929        O  0.62014756  0.94174618  0.04993251    -0.73000
O930        O  0.57934851  0.54624953  0.05125977    -0.72800
O931        O  0.60699145  0.98402470  0.39142905    -0.72400
O932        O  0.61094090  0.98890596  0.09007624    -0.73000
O933        O  0.61158155  0.93576758  0.42873854    -0.72600
O934        O  0.57725974  0.54570687  0.44390306    -0.73200
O935        O  0.96337707  0.96589843  0.42597599    -0.72600
O936        O  0.50195326  0.49951763  0.10252449    -0.73400
O937        O  0.51107313  0.50258969  0.37984742    -0.72800
O938        O  0.94841784  0.97769828  0.05778259    -0.73200
O939        O  0.00047430  0.90743638  0.50176058    -0.73100
O940        O  0.54098767  0.89758235  0.49692331    -0.72900
C941        C  0.63136163  0.96184088  0.08378823     0.78900
C942        C  0.57619535  0.56294281  0.48343552     0.79400
C943        C  0.62404511  0.95560809  0.39515059     0.78300
C944        C  0.97705590  0.98523519  0.39172419     0.78700
C945        C  0.96342800  0.99592235  0.09279464     0.79800
C946        C  0.49991439  0.88994998  0.49638251     0.78900
C947        C  0.67361404  0.96043769  0.32069607    -0.14700
C948        C  0.65899303  0.94397477  0.36083427    -0.29900
H949        H  0.66120422  0.98487082  0.31345743     0.14300
H950        H  0.67239615  0.92006366  0.36919206     0.14900
C951        C  0.67987231  0.96572282  0.15910397    -0.14700
C952        C  0.66886111  0.95186839  0.11536028    -0.29900
H953        H  0.66324598  0.98794536  0.17127015     0.14300
H954        H  0.68643735  0.93028716  0.10250808     0.14900
C955        C  0.95016769  0.99274581  0.34753526    -0.14700
C956        C  0.91404654  0.97627786  0.33140950    -0.29900
H957        H  0.95986987  0.01503010  0.32801203     0.14300
H958        H  0.95679195  0.48625397  0.30710306     0.14900
C959        C  0.93542699  0.00596184  0.13546713    -0.14700
C960        C  0.90573290  0.98669788  0.15938837    -0.29900
H961        H  0.94317081  0.02993330  0.15083306     0.14900
H962        H  0.94860335  0.47873474  0.17684098     0.14900
C963        C  0.77010648  0.84923142  0.27104298    -0.14700
C964        C  0.75495532  0.86750110  0.23318201    -0.29900
H965        H  0.77709033  0.86074737  0.30672034     0.14300
H966        H  0.74712812  0.85549953  0.19808997     0.14900
C967        C  0.85592150  0.60500482  0.24705763    -0.14700
C968        C  0.82767715  0.57936826  0.25003276    -0.29900
H969        H  0.89159554  0.60068067  0.24425811     0.14300
H970        H  0.79195757  0.58358734  0.25219406     0.14900
C971        C  0.92323725  0.73948893  0.42617628    -0.14700
C972        C  0.92836062  0.74263861  0.37667671    -0.29900
H973        H  0.89351545  0.72808602  0.44192923     0.14300
H974        H  0.95959810  0.75211183  0.36153525     0.14900
C975        C  0.93495029  0.74119918  0.08076100    -0.14700
C976        C  0.90102040  0.75875445  0.10001040    -0.29900
H977        H  0.94091174  0.71648930  0.09381217     0.14300
H978        H  0.89289723  0.78223058  0.08357573     0.14900
C979        C  0.51791108  0.83120996  0.50411956    -0.14700
C980        C  0.48709570  0.85514045  0.50193603    -0.29900
H981        H  0.05787955  0.83731949  0.99871662     0.14300
H982        H  0.45184149  0.84882387  0.50299905     0.14900
C983        C  0.67129689  0.71116644  0.42855200    -0.14700
C984        C  0.68240291  0.69527183  0.38620113    -0.29900
H985        H  0.68777784  0.73411852  0.43772679     0.14300
H986        H  0.66437091  0.67322834  0.37587764     0.14900
C987        C  0.67457589  0.69655385  0.13088182    -0.14700
C988        C  0.65987811  0.71318646  0.09117914    -0.29900
H989        H  0.66075995  0.67271766  0.13967337     0.14300
H990        H  0.67366018  0.73726404  0.08312425     0.14900
C991        C  0.58579023  0.59820514  0.47790392    -0.14700
C992        C  0.58126725  0.62022715  0.51497022    -0.29900
H993        H  0.59589105  0.60596312  0.44095182     0.14300
H994        H  0.53751298  0.61427722  0.00879504     0.14900
C995        C  0.58675858  0.65618512  0.01031757     0.88200
C996        C  0.61689182  0.66452224  0.96570577    -0.52000
C997        C  0.63127970  0.69642504  0.96468272     0.11100
C998        C  0.61273378  0.71705558  0.00812144     0.22100
C999        C  0.62122728  0.66728039  0.55593610    -0.52700
C1000       C  0.63357062  0.69958169  0.55505228     0.11300
C1001       C  0.54820923  0.68044176  0.00725719    -0.52300
C1002       C  0.56694795  0.71216987  0.50720702     0.11800
H1003       H  0.62593041  0.64616429  0.93827256     0.16300
H1004       H  0.62510778  0.74262673  0.00737921     0.02100
H1005       H  0.63086042  0.65031563  0.58489542     0.16600
H1006       H  0.51387582  0.67223964  0.00579000     0.16400
C1007       C  0.50269118  0.79677552  0.99839709     0.88200
C1008       C  0.98564101  0.78419765  0.94982020    -0.52000
C1009       C  0.97257722  0.75212950  0.95056704     0.11100
C1010       C  0.98534475  0.73405138  0.99875257     0.22100
C1011       C  0.97180188  0.79224309  0.54535439    -0.52700
C1012       C  0.96158330  0.75980459  0.55026197     0.11300
C1013       C  0.54142102  0.77239273  0.99862270    -0.52300
C1014       C  0.53325368  0.73927385  0.50826783     0.11800
H1015       H  0.97897989  0.80045216  0.91880300     0.16300
H1016       H  0.97357318  0.70832770  0.99925397     0.02100
H1017       H  0.96326694  0.81041381  0.57346509     0.16600
H1018       H  0.57581440  0.78045073  0.99626452     0.16400
Zn1019     Zn  0.78087193  0.75615647  0.70106181     1.49700
Zn1020     Zn  0.76059902  0.68905592  0.75768595     1.49400
Zn1021     Zn  0.86050409  0.71400326  0.75191803     1.49100
Zn1022     Zn  0.78472961  0.75267319  0.81827541     1.49500
O1023       O  0.79751099  0.72812759  0.75702008    -1.82400
O1024       O  0.72799631  0.73740179  0.66356793    -0.73000
O1025       O  0.79495303  0.64773965  0.74647977    -0.72800
O1026       O  0.88927615  0.73378142  0.68891113    -0.72400
O1027       O  0.71483666  0.69130841  0.70524918    -0.73000
O1028       O  0.83269465  0.76033955  0.65427831    -0.72600
O1029       O  0.86557272  0.66417059  0.74535148    -0.73200
O1030       O  0.84004924  0.75395753  0.85820890    -0.72600
O1031       O  0.72714889  0.68433188  0.82138004    -0.73400
O1032       O  0.89385773  0.72879083  0.81492816    -0.72800
O1033       O  0.73475443  0.73208465  0.86030409    -0.73200
O1034       O  0.77169433  0.80037943  0.80518158    -0.73100
O1035       O  0.76781825  0.80275655  0.72274940    -0.72900
C1036       C  0.70569091  0.71111568  0.67054611     0.78900
C1037       C  0.83632276  0.64143856  0.74305247     0.79400
C1038       C  0.87316762  0.75124170  0.65399449     0.78300
C1039       C  0.88019865  0.74463664  0.85328732     0.78700
C1040       C  0.71749492  0.70355065  0.85706186     0.79800
C1041       C  0.76662644  0.81666347  0.76532065     0.78900
C1042       C  0.83549984  0.54643098  0.73454046     0.88200
C1043       C  0.86171980  0.53735084  0.78107249    -0.52000
C1044       C  0.87469917  0.50540069  0.78218987     0.11100
C1045       C  0.85437874  0.98376444  0.74456339     0.22100
C1046       C  0.86541736  0.53647469  0.69057336    -0.52700
C1047       C  0.87845859  0.50444474  0.69175685     0.11300
C1048       C  0.79640081  0.52193451  0.73352426    -0.52300
C1049       C  0.80313241  0.98918431  0.74190180     0.11800
H1050       H  0.86956239  0.55475195  0.81047803     0.16300
H1051       H  0.86523929  0.95792112  0.74593870     0.02100
H1052       H  0.87584346  0.55337544  0.66147320     0.16600
H1053       H  0.76220244  0.53012872  0.73202830     0.16400
C1054       C  0.73803328  0.90708963  0.73403781     0.88200
C1055       C  0.70747620  0.91605568  0.77809891    -0.52000
C1056       C  0.69675801  0.94857750  0.78059423     0.11100
C1057       C  0.71744055  0.96889868  0.73822194     0.22100
C1058       C  0.71312279  0.91943916  0.68830952    -0.52700
C1059       C  0.70159877  0.95179021  0.69060159     0.11300
C1060       C  0.77876603  0.92978910  0.73853401    -0.52300
C1061       C  0.76851562  0.96249558  0.74030817     0.11800
H1062       H  0.69387784  0.89768993  0.80315197     0.16300
H1063       H  0.70687554  0.99476238  0.73999893     0.02100
H1064       H  0.70246911  0.90293263  0.65895048     0.16600
H1065       H  0.81244245  0.92037660  0.73900951     0.16400
Zn1066     Zn  0.57697855  0.94088437  0.99459106     1.49700
Zn1067     Zn  0.55445022  0.50311498  0.54728173     1.49400
Zn1068     Zn  0.57217015  0.50365014  0.94480524     1.49100
Zn1069     Zn  0.97823627  0.96221531  0.99196031     1.49500
O1070       O  0.53869740  0.97870847  0.99633670    -1.82400
O1071       O  0.61678965  0.94313083  0.54313799    -0.73000
O1072       O  0.56743763  0.55040866  0.52604817    -0.72800
O1073       O  0.59642597  0.98387092  0.88918266    -0.72400
O1074       O  0.59893682  0.98710109  0.58785684    -0.73000
O1075       O  0.61426680  0.94021750  0.93372506    -0.72600
O1076       O  0.58997479  0.54835787  0.96894028    -0.73200
O1077       O  0.94447001  0.97958209  0.93040217    -0.72600
O1078       O  0.49803444  0.50354710  0.59002187    -0.73400
O1079       O  0.52216905  0.50996432  0.89699134    -0.72800
O1080       O  0.94747754  0.97235899  0.54883981    -0.73200
O1081       O  0.97534424  0.91216620  0.99081161    -0.73100
O1082       O  0.54325580  0.89855872  0.99633970    -0.72900
C1083       C  0.62388156  0.96243452  0.57923684     0.78900
C1084       C  0.58989244  0.56187578  0.01171776     0.79400
C1085       C  0.61973811  0.95819254  0.89574325     0.78300
C1086       C  0.95835817  0.99598367  0.89267060     0.78700
C1087       C  0.95072397  0.99243838  0.58528010     0.79800
C1088       C  0.50194686  0.89153459  0.99871597     0.78900
C1089       C  0.66435330  0.96274130  0.81700236    -0.14700
C1090       C  0.65400609  0.94741893  0.85971466    -0.29900
H1091       H  0.64866854  0.98589586  0.80818209     0.14300
H1092       H  0.67142610  0.92515301  0.86945066     0.14900
C1093       C  0.66984346  0.96729235  0.65569046    -0.14700
C1094       C  0.66188808  0.95415781  0.61083386    -0.29900
H1095       H  0.65050890  0.98807865  0.66870282     0.14300
H1096       H  0.68254780  0.93424527  0.59729939     0.14900
C1097       C  0.92750472  0.00800518  0.85445967    -0.14700
C1098       C  0.89619815  0.98977322  0.83178398    -0.29900
H1099       H  0.93425490  0.03257922  0.84080521     0.14300
H1100       H  0.89520813  0.46776397  0.83688077     0.14900
C1101       C  0.91124760  0.99924099  0.61656382    -0.14700
C1102       C  0.90750842  0.98865628  0.66392016    -0.29900
H1103       H  0.88655997  0.01573733  0.60148200     0.14900
H1104       H  0.90339179  0.46606012  0.63963893     0.14900
C1105       C  0.76010357  0.85251067  0.76921308    -0.14700
C1106       C  0.74827067  0.87081720  0.72994593    -0.29900
H1107       H  0.76396918  0.86400859  0.80550579     0.14300
H1108       H  0.74308320  0.85882261  0.69422125     0.14900
C1109       C  0.85075971  0.60697336  0.73735930    -0.14700
C1110       C  0.82126367  0.58196856  0.73434602    -0.29900
H1111       H  0.88626529  0.60179528  0.73763157     0.14300
H1112       H  0.78577460  0.58718116  0.73390940     0.14900
C1113       C  0.94473326  0.73775785  0.91049613    -0.14700
C1114       C  0.91105039  0.75544541  0.89227296    -0.29900
H1115       H  0.95000102  0.71267692  0.89841750     0.14300
H1116       H  0.90361902  0.77904312  0.90919549     0.14900
C1117       C  0.93621388  0.74647902  0.59348984    -0.14700
C1118       C  0.90140948  0.76299563  0.61249629    -0.29900
H1119       H  0.94411335  0.72224069  0.60726251     0.14300
H1120       H  0.89121149  0.78560130  0.59470974     0.14900
C1121       C  0.51724944  0.83217494  0.99545517    -0.14700
C1122       C  0.48774284  0.85687905  0.99801854    -0.29900
H1123       H  0.98793649  0.84980334  0.46017912     0.14300
H1124       H  0.45229684  0.85138235  0.00083114     0.14900
C1125       C  0.66379515  0.71009741  0.92773319    -0.14700
C1126       C  0.68555642  0.69118041  0.89456018    -0.29900
H1127       H  0.67045290  0.73625337  0.92859005     0.14300
H1128       H  0.67932720  0.66507907  0.89318763     0.14900
C1129       C  0.66915637  0.70170973  0.63743521    -0.14700
C1130       C  0.66325214  0.71498366  0.59236492    -0.29900
H1131       H  0.64896338  0.68096186  0.64920963     0.14300
H1132       H  0.68257499  0.73634628  0.58119391     0.14900
C1133       C  0.60293369  0.59648593  0.01506450    -0.14700
C1134       C  0.57268704  0.62053494  0.01157481    -0.29900
H1135       H  0.63823335  0.60240029  0.01712422     0.14300
H1136       H  0.56748619  0.61224819  0.55055025     0.14900
loop_ 
_geom_bond_atom_site_label_1 
_geom_bond_atom_site_label_2 
_geom_bond_distance 
_geom_bond_site_symmetry_2 
_ccdc_geom_bond_type 
C1            C2   1.540       .  S
C1            C7   1.529       .  S
C1          C140   1.527       .  S
C1          C147   1.527       .  S
C2            H9   1.079       .  S
C2            C3   1.371       .  D
C3            C4   1.539       .  S
C3          C131   1.496       .  S
C4          C150   1.557       .  S
C4          C148   1.541       .  S
C4           H10   1.108       .  S
C5          C143   1.530       .  S
C5           H11   1.084       .  S
C5            C6   1.369       .  D
C6          C146   1.535       .  S
C6          C136   1.491       .  S
C7           H12   1.082       .  S
C7          C150   1.372       .  D
C8          C146   1.559       .  S
C8          C149   1.373       .  D
C8           C20   1.507       .  S
C13          C19   1.540   1_655  S
C13         C127   1.510   1_655  S
C13         C582   1.527       .  S
C13         C727   1.523       .  S
C14         C581   1.527       .  S
C14          H21   1.087       .  S
C14          C15   1.364       .  D
C15          C16   1.546       .  S
C15         C119   1.483       .  S
C16         C730   1.556       .  S
C16         C160   1.541       .  S
C16          H22   1.107       .  S
C17         C723   1.530       .  S
C17          H23   1.086       .  S
C17          C18   1.367       .  D
C18         C158   1.546       .  S
C18         C123   1.488       .  S
C19          H24   1.083       .  S
C19         C162   1.377       .  D
C20         C726   1.564   1_455  S
C20         C161   1.370       .  D
Zn25         O29   1.967       .  S
Zn25         O30   2.058       .  S
Zn25         O34   2.024       .  S
Zn25         O41   2.032       .  S
Zn26         O29   1.939       .  S
Zn26         O31   2.002       .  S
Zn26         O33   1.976       .  S
Zn26         O37   1.978       .  S
Zn27         O29   1.971       .  S
Zn27         O32   2.042       .  S
Zn27         O35   2.036       .  S
Zn27         O38   2.025       .  S
Zn28         O29   1.979       .  S
Zn28         O36   2.039       .  S
Zn28         O39   2.066       .  S
Zn28         O40   2.054       .  S
O30          C42   1.278       .  A
O31          C43   1.271       .  A
O32          C44   1.276       .  A
O33          C42   1.268       .  A
O34          C44   1.274       .  A
O35          C43   1.274       .  A
O36          C45   1.277       .  A
O37          C46   1.268       .  A
O38          C45   1.275       .  A
O39          C46   1.277       .  A
O40          C47   1.277       .  A
O41          C47   1.277       .  A
C42         C135   1.473       .  S
C43         C115   1.478       .  S
C44         C124   1.479       .  S
C45         C120   1.473       .  S
C46         C132   1.476       .  S
C47         C111   1.491       .  S
C48          C49   1.530       .  S
C48          C54   1.536       .  S
C48          C52   1.529       .  S
C48         C116   1.512       .  S
C49          H56   1.086       .  S
C49          C50   1.366       .  D
C50         C335   1.534   1_545  S
C50         C388   1.475   1_545  S
C51          C55   1.554       .  S
C51         C334   1.537       .  S
C51         C337   1.543       .  S
C51          H57   1.108       .  S
C52          H58   1.086       .  S
C52          C53   1.364       .  D
C53         C335   1.539   1_545  S
C53         C392   1.477   1_545  S
C54          H59   1.082       .  S
C54         C339   1.374   1_545  D
C55         C338   1.372       .  D
C55          C67   1.504       .  S
C60          C61   1.537       .  S
C60          C66   1.538       .  S
C60          C64   1.534       .  S
C60         C112   1.524       .  S
C61          H68   1.086       .  S
C61          C62   1.372       .  D
C62          C63   1.526       .  S
C62          C95   1.482       .  S
C63          C67   1.554       .  S
C63          C65   1.529       .  S
C63          H69   1.105       .  S
C64          H70   1.083       .  S
C64          C65   1.369       .  D
C65          C99   1.490       .  S
C66          H71   1.083       .  S
C66          C67   1.376       .  D
Zn72         O76   1.926       .  S
Zn72         O81   1.933       .  S
Zn72         O88   1.974       .  S
Zn72        O219   1.955       .  S
Zn73        O502   1.971   1_544  S
Zn73         O78   2.042       .  S
Zn73         O84   1.983       .  S
Zn73        O364   2.059   1_545  S
Zn74        O360   1.937   1_545  S
Zn74         O82   1.993       .  S
Zn74         O85   1.979       .  S
Zn74        O363   1.995   1_545  S
Zn75        O644   1.967       .  S
Zn75         O83   2.032       .  S
Zn75         O87   2.035       .  S
Zn75        O228   2.027       .  S
O76        Zn499   1.966       .  S
O76        Zn358   1.975       .  S
O76        Zn643   1.973   1_455  S
O77        Zn214   1.962   1_554  S
O77          C89   1.266       .  A
O78         C232   1.275   1_554  A
O79        Zn358   2.075       .  S
O79          C91   1.279       .  A
O80        Zn357   2.058       .  S
O80          C89   1.278       .  A
O81          C91   1.260       .  A
O82          C90   1.270       .  A
O83          C92   1.275       .  A
O84         C945   1.270   1_445  A
O85         C944   1.268   1_445  A
O86        Zn217   2.011   1_554  S
O86          C93   1.273       .  A
O87         C662   1.274       .  A
O88          C94   1.264       .  A
C89         C100   1.470       .  S
C90         O220   1.278       .  A
C90         C139   1.478       .  S
C91          C96   1.468       .  S
C92         O937   1.272       .  A
C92         C103   1.472       .  S
C93         O936   1.279       .  A
C93         C107   1.470       .  S
C94         O655   1.278       .  A
C94         C128   1.469       .  S
C95          H97   1.086       .  S
C95          C96   1.333       .  D
C96          H98   1.087       .  S
C99         H101   1.087       .  S
C99         C100   1.339       .  D
C100        H102   1.084       .  S
C103        H105   1.088       .  S
C103        C104   1.342       .  D
C104        H390   1.086       .  S
C104        C334   1.477       .  S
H106        C388   1.086       .  S
C107        H109   1.086       .  S
C107        C108   1.342       .  D
C108        H394   1.086       .  S
C108        C337   1.485       .  S
H110        C392   1.086       .  S
C111        H113   1.086       .  S
C111        C112   1.349       .  D
C112        H114   1.086       .  S
C115        H117   1.087       .  S
C115        C116   1.348       .  D
C116        H118   1.087       .  S
C119        H121   1.086       .  S
C119        C120   1.344       .  D
C120        H122   1.087       .  S
C123        H125   1.086       .  S
C123        C124   1.347       .  D
C124        H126   1.087       .  S
C127        H839   1.088   1_455  S
C127        C128   1.334       .  D
C128        H130   1.087       .  S
H129        C837   1.087       .  S
C131        H133   1.086       .  S
C131        C132   1.345       .  D
C132        H134   1.084       .  S
C135        H137   1.084       .  S
C135        C136   1.342       .  D
C136        H138   1.086       .  S
C139        H141   1.082       .  S
C139        C140   1.345       .  D
C140        H284   1.087       .  S
H142        C282   1.087       .  S
C143        C144   1.542   1_554  S
C143        C149   1.539       .  S
C143        C282   1.528       .  S
C144        H151   1.078       .  S
C144        C145   1.368       .  D
C145        C146   1.536   1_556  S
C145        C273   1.497       .  S
C146        H152   1.105       .  S
C147        H153   1.083       .  S
C147        C148   1.371       .  D
C148        C278   1.494       .  S
C149        H154   1.084       .  S
C150        C162   1.506       .  S
C155        C724   1.526       .  S
C155        C161   1.527   1_656  S
C155        C585   1.527   1_556  S
C155        C269   1.504   1_655  S
C156        C723   1.526   1_556  S
C156        H163   1.087       .  S
C156        C157   1.365       .  D
C157        C158   1.543   1_556  S
C157        C261   1.483       .  S
C158        C588   1.552       .  S
C158        H164   1.107       .  S
C159        C581   1.531       .  S
C159        H165   1.086       .  S
C159        C160   1.365       .  D
C160        C265   1.487       .  S
C161        H166   1.081       .  S
C162        C584   1.558   1_455  S
Zn167       O171   1.970       .  S
Zn167       O172   2.055       .  S
Zn167       O176   2.003       .  S
Zn167       O183   2.029       .  S
Zn168       O171   1.935       .  S
Zn168       O173   2.014       .  S
Zn168       O175   1.979       .  S
Zn168       O179   1.993       .  S
Zn169       O171   1.978       .  S
Zn169       O174   2.055       .  S
Zn169       O177   2.030       .  S
Zn169       O180   2.054       .  S
Zn170       O171   1.960       .  S
Zn170       O178   1.989       .  S
Zn170       O181   2.055       .  S
Zn170       O182   2.017       .  S
O172        C184   1.277       .  A
O173        C185   1.273       .  A
O174        C186   1.278       .  A
O175        C184   1.269       .  A
O176        C186   1.272       .  A
O177        C185   1.274       .  A
O178        C187   1.271       .  A
O179        C188   1.270       .  A
O180        C187   1.278       .  A
O181        C188   1.276       .  A
O182        C189   1.272       .  A
O183        C189   1.275       .  A
C184        C277   1.472       .  S
C185        C257   1.479       .  S
C186        C266   1.474       .  S
C187        C262   1.469       .  S
C188        C274   1.477       .  S
C189        C253   1.480       .  S
C190        C191   1.536       .  S
C190        C196   1.533       .  S
C190        C194   1.538       .  S
C190        C258   1.514       .  S
C191        H198   1.086       .  S
C191        C192   1.364       .  D
C192        C477   1.533   1_545  S
C192        C530   1.476   1_545  S
C193        C476   1.537       .  S
C193        C197   1.557       .  S
C193        C479   1.544       .  S
C193        H199   1.107       .  S
C194        H200   1.086       .  S
C194        C195   1.365       .  D
C195        C477   1.535   1_545  S
C195        C534   1.481       .  S
C196        H201   1.082       .  S
C196        C481   1.371   1_545  D
C197        C480   1.377       .  D
C197        C209   1.507       .  S
C202        C203   1.528       .  S
C202        C208   1.535       .  S
C202        C206   1.528       .  S
C202        C254   1.519       .  S
C203        H210   1.083       .  S
C203        C204   1.367       .  D
C204        C205   1.537       .  S
C204        C237   1.486       .  S
C205        C209   1.556       .  S
C205        C207   1.534       .  S
C205        H211   1.107       .  S
C206        H212   1.085       .  S
C206        C207   1.369       .  D
C207        C241   1.486       .  S
C208        H213   1.082       .  S
C208        C209   1.377       .  D
Zn214       O218   1.922       .  S
Zn214       O223   1.969       .  S
Zn214       O230   1.980       .  S
Zn215       O360   1.975   1_545  S
Zn215       O220   2.059       .  S
Zn215       O506   2.058       .  S
Zn215       O226   2.028   1_455  S
Zn216       O502   1.959   1_545  S
Zn216       O505   2.042   1_545  S
Zn216       O224   2.003       .  S
Zn216       O227   1.991   1_455  S
Zn217       O786   1.964   1_556  S
Zn217       O225   2.028       .  S
Zn217       O229   2.030       .  S
O218       Zn357   1.967   1_556  S
O218       Zn500   1.948       .  S
O218       Zn785   1.959   1_455  S
O219        C231   1.265       .  A
O221       Zn500   2.032       .  S
O221        C233   1.274       .  A
O222       Zn499   2.056       .  S
O222        C231   1.276       .  A
O223        C233   1.267       .  A
O224        C232   1.271       .  A
O225        C234   1.274       .  A
O226       C1087   1.277   1_545  A
O227       C1086   1.271   1_545  A
O228        C235   1.274       .  A
O229        C804   1.273       .  A
O230        C236   1.269   1_455  A
C231        C242   1.466       .  S
C232        C281   1.477       .  S
C233        C238   1.465       .  S
C234       O1079   1.271       .  A
C234        C245   1.468       .  S
C235       O1078   1.276       .  A
C235        C249   1.472       .  S
C236        O797   1.273       .  A
C236        C270   1.471       .  S
C237        H239   1.086       .  S
C237        C238   1.342       .  D
C238        H240   1.083       .  S
C241        H243   1.086       .  S
C241        C242   1.339       .  D
C242        H244   1.086       .  S
C245        H247   1.087       .  S
C245        C246   1.345       .  D
C246        H532   1.086       .  S
C246        C476   1.481       .  S
H248        C530   1.086       .  S
C249        H251   1.086       .  S
C249        C250   1.343       .  D
C250        H536   1.086       .  S
C250        C479   1.484       .  S
H252        C534   1.086   1_565  S
C253        H255   1.087       .  S
C253        C254   1.346       .  D
C254        H256   1.087       .  S
C257        H259   1.087       .  S
C257        C258   1.347       .  D
C258        H260   1.087       .  S
C261        H263   1.086       .  S
C261        C262   1.342       .  D
C262        H264   1.088       .  S
C265        H267   1.086       .  S
C265        C266   1.344       .  D
C266        H268   1.087       .  S
C269        H697   1.087       .  S
C269        C270   1.346   1_455  D
C270        H272   1.087       .  S
H271        C695   1.087       .  S
C273        H275   1.085       .  S
C273        C274   1.347       .  D
C274        H276   1.083       .  S
C277        H279   1.082       .  S
C277        C278   1.344       .  D
C278        H280   1.086       .  S
C281        H283   1.081       .  S
C281        C282   1.349   1_556  D
C285        C286   1.525       .  S
C285        C291   1.533       .  S
C285        C431   1.534       .  S
C285        C424   1.522       .  S
C286        H293   1.083       .  S
C286        C287   1.368       .  D
C287        C288   1.539       .  S
C287        C415   1.489       .  S
C288        C434   1.554       .  S
C288        C432   1.532       .  S
C288        H294   1.107       .  S
C289        C427   1.525       .  S
C289        H295   1.084       .  S
C289        C290   1.369       .  D
C290        C430   1.535       .  S
C290        C420   1.484       .  S
C291        H296   1.082       .  S
C291        C434   1.377       .  D
C292        C430   1.553       .  S
C292        C433   1.374       .  D
C292        C304   1.502       .  S
C297        C866   1.526       .  S
C297        C303   1.541   1_655  S
C297       C1011   1.532       .  S
C297        C411   1.512   1_655  S
C298        C865   1.527       .  S
C298        H305   1.087       .  S
C298        C299   1.363       .  D
C299        C300   1.537       .  S
C299        C403   1.475       .  S
C300       C1014   1.554       .  S
C300        C444   1.536       .  S
C300        H306   1.107       .  S
C301       C1007   1.533   1_554  S
C301        H307   1.086       .  S
C301        C302   1.363       .  D
C302        C442   1.532       .  S
C302        C407   1.477       .  S
C303        H308   1.083       .  S
C303        C446   1.379       .  D
C304       C1010   1.551   1_454  S
C304        C445   1.373       .  D
Zn309       O313   1.954       .  S
Zn309       O314   2.031       .  S
Zn309       O318   2.000       .  S
Zn309       O325   1.999       .  S
Zn310       O313   1.928       .  S
Zn310       O315   2.001       .  S
Zn310       O317   1.971       .  S
Zn310       O321   1.966       .  S
Zn311       O313   1.957       .  S
Zn311       O316   2.021       .  S
Zn311       O319   2.029       .  S
Zn311       O322   2.008       .  S
Zn312       O313   1.966       .  S
Zn312       O320   2.026       .  S
Zn312       O323   2.045       .  S
Zn312       O324   2.043       .  S
O314        C326   1.274       .  A
O315        C327   1.271       .  A
O316        C328   1.274       .  A
O317        C326   1.267       .  A
O318        C328   1.271       .  A
O319        C327   1.273       .  A
O320        C329   1.276       .  A
O321        C330   1.267       .  A
O322        C329   1.272       .  A
O323        C330   1.276       .  A
O324        C331   1.275       .  A
O325        C331   1.273       .  A
C326        C419   1.464       .  S
C327        C399   1.476       .  S
C328        C408   1.468       .  S
C329        C404   1.466       .  S
C330        C416   1.467       .  S
C331        C395   1.480       .  S
C332        C333   1.531       .  S
C332        C338   1.530       .  S
C332        C336   1.530       .  S
C332        C400   1.511       .  S
C333        H340   1.086       .  S
C333        C334   1.364       .  D
C335        C339   1.545       .  S
C335        H341   1.107       .  S
C336        H342   1.086       .  S
C336        C337   1.368       .  D
C338        H343   1.081       .  S
C339        C351   1.498       .  S
C344        C345   1.529       .  S
C344        C350   1.535       .  S
C344        C348   1.533       .  S
C344        C396   1.513       .  S
C345        H352   1.085       .  S
C345        C346   1.366       .  D
C346        C347   1.535       .  S
C346        C379   1.477       .  S
C347        C351   1.548       .  S
C347        C349   1.534       .  S
C347        H353   1.106       .  S
C348        H354   1.084       .  S
C348        C349   1.368       .  D
C349        C383   1.491       .  S
C350        H355   1.082       .  S
C350        C351   1.376       .  D
Zn356       O360   1.944       .  S
Zn356       O503   1.979       .  S
Zn356       O365   2.001       .  S
Zn356       O372   1.999       .  S
Zn357       O362   2.047       .  S
Zn357       O368   2.038   1_455  S
Zn358       O366   2.052       .  S
Zn358       O369   2.027   1_455  S
Zn359       O928   1.963       .  S
Zn359       O367   2.038       .  S
Zn359       O512   2.030       .  S
Zn359       O371   2.054       .  S
O360       Zn927   1.977   1_455  S
O361       Zn498   1.975   1_554  S
O361        C373   1.267       .  A
O362        C516   1.278   1_554  A
O363        C375   1.271       .  A
O364        C373   1.277       .  A
O365        C375   1.269       .  A
O366        C374   1.278       .  A
O367        C376   1.277       .  A
O368        C661   1.278       .  A
O369        C660   1.276       .  A
O370       Zn501   2.017       .  S
O370        C377   1.274       .  A
O371        C946   1.277       .  A
O372        C378   1.269       .  A
C373        C384   1.473       .  S
C374        O504   1.275       .  A
C374        C423   1.486       .  S
C375        C380   1.468       .  S
C376        O653   1.270   1_565  A
C376        C387   1.468   1_565  S
C377        O652   1.273   1_565  A
C377        C391   1.471   1_565  S
C378        O939   1.278       .  A
C378        C412   1.474       .  S
C379        H381   1.086       .  S
C379        C380   1.343       .  D
C380        H382   1.085       .  S
C383        H385   1.086       .  S
C383        C384   1.342       .  D
C384        H386   1.085       .  S
C387        H389   1.088       .  S
C387        C388   1.338   1_545  D
C391        H393   1.087       .  S
C391        C392   1.343   1_545  D
C395        H397   1.086       .  S
C395        C396   1.347       .  D
C396        H398   1.087       .  S
C399        H401   1.087       .  S
C399        C400   1.346       .  D
C400        H402   1.087       .  S
C403        H405   1.086       .  S
C403        C404   1.339       .  D
C404        H406   1.087       .  S
C407        H409   1.086       .  S
C407        C408   1.340       .  D
C408        H410   1.087       .  S
C411       H1123   1.088   1_455  S
C411        C412   1.339       .  D
C412        H414   1.087       .  S
H413       C1121   1.087       .  S
C415        H417   1.086       .  S
C415        C416   1.343       .  D
C416        H418   1.083       .  S
C419        H421   1.084       .  S
C419        C420   1.340       .  D
C420        H422   1.086       .  S
C423        H425   1.086       .  S
C423        C424   1.351       .  D
C424        H568   1.087       .  S
H426        C566   1.087       .  S
C427        C428   1.534   1_554  S
C427        C433   1.534       .  S
C427        C566   1.514       .  S
C428        H435   1.084       .  S
C428        C429   1.367       .  D
C429        C430   1.535   1_556  S
C429        C557   1.486       .  S
C430        H436   1.106       .  S
C431        H437   1.085       .  S
C431        C432   1.371       .  D
C432        C562   1.485       .  S
C433        H438   1.082       .  S
C434        C446   1.505       .  S
C439       C1008   1.525   1_455  S
C439        C445   1.535   1_556  S
C439        C869   1.531   1_456  S
C439        C553   1.512       .  S
C440       C1007   1.534       .  S
C440        H447   1.086       .  S
C440        C441   1.366       .  D
C441        C442   1.542   1_556  S
C441        C545   1.483       .  S
C442        C872   1.554       .  S
C442        H448   1.107       .  S
C443        C865   1.532       .  S
C443        H449   1.086       .  S
C443        C444   1.366       .  D
C444        C549   1.481       .  S
C445        H450   1.082       .  S
C446        C868   1.553   1_455  S
Zn451       O455   1.964       .  S
Zn451       O456   2.058       .  S
Zn451       O460   2.004       .  S
Zn451       O467   2.013       .  S
Zn452       O455   1.938       .  S
Zn452       O457   1.996       .  S
Zn452       O459   1.966       .  S
Zn452       O463   1.979       .  S
Zn453       O455   1.964       .  S
Zn453       O458   2.035       .  S
Zn453       O461   2.041       .  S
Zn453       O464   2.036       .  S
Zn454       O455   1.972       .  S
Zn454       O462   2.036       .  S
Zn454       O465   2.046       .  S
Zn454       O466   2.038       .  S
O456        C468   1.277       .  A
O457        C469   1.268       .  A
O458        C470   1.275       .  A
O459        C468   1.265       .  A
O460        C470   1.272       .  A
O461        C469   1.277       .  A
O462        C471   1.276       .  A
O463        C472   1.268       .  A
O464        C471   1.275       .  A
O465        C472   1.276       .  A
O466        C473   1.276       .  A
O467        C473   1.274       .  A
C468        C561   1.469       .  S
C469        C541   1.471       .  S
C470        C550   1.473       .  S
C471        C546   1.479       .  S
C472        C558   1.471       .  S
C473        C537   1.478       .  S
C474        C475   1.525       .  S
C474        C480   1.537       .  S
C474        C478   1.530       .  S
C474        C542   1.510       .  S
C475        H482   1.087       .  S
C475        C476   1.359       .  D
C477        C481   1.557       .  S
C477        H483   1.107       .  S
C478        H484   1.086       .  S
C478        C479   1.367       .  D
C480        H485   1.082       .  S
C481        C493   1.504       .  S
C486        C487   1.534       .  S
C486        C492   1.534       .  S
C486        C490   1.529       .  S
C486        C538   1.522       .  S
C487        H494   1.080       .  S
C487        C488   1.369       .  D
C488        C489   1.539       .  S
C488        C521   1.492       .  S
C489        C493   1.558       .  S
C489        C491   1.539       .  S
C489        H495   1.105       .  S
C490        H496   1.087       .  S
C490        C491   1.361       .  D
C491        C525   1.479       .  S
C492        H497   1.083       .  S
C492        C493   1.374       .  D
Zn498       O502   1.934       .  S
Zn498       O507   1.982       .  S
Zn498       O514   1.994       .  S
Zn499       O504   2.022       .  S
Zn499       O510   2.008       .  S
Zn500       O508   1.986       .  S
Zn500       O511   1.988       .  S
Zn501      O1070   1.964   1_554  S
Zn501       O509   2.021   1_554  S
Zn501       O513   2.032       .  S
O502      Zn1069   1.989   1_455  S
O503        C515   1.271       .  A
O505        C517   1.274       .  A
O506        C515   1.276   1_545  A
O507        C517   1.268       .  A
O508        C516   1.269       .  A
O509        C518   1.273       .  A
O510        C803   1.273   1_455  A
O511        C802   1.269   1_455  A
O512        C519   1.275       .  A
O513       C1088   1.274   1_554  A
O514        C520   1.271       .  A
C515        C526   1.484       .  S
C516        C565   1.473       .  S
C517        C522   1.471       .  S
C518        O795   1.276   1_565  A
C518        C529   1.473   1_565  S
C519        O794   1.278   1_565  A
C519        C533   1.477   1_565  S
C520       O1081   1.276   1_455  A
C520        C554   1.478   1_455  S
C521        H523   1.086       .  S
C521        C522   1.345       .  D
C522        H524   1.084       .  S
C525        H527   1.087       .  S
C525        C526   1.348       .  D
C526        H528   1.086       .  S
C529        H531   1.086       .  S
C529        C530   1.340   1_545  D
C533        H535   1.087       .  S
C533        C534   1.341       .  D
C537        H539   1.083       .  S
C537        C538   1.350       .  D
C538        H540   1.087       .  S
C541        H543   1.086       .  S
C541        C542   1.336       .  D
C542        H544   1.088       .  S
C545        H547   1.086       .  S
C545        C546   1.343       .  D
C546        H548   1.087       .  S
C549        H551   1.086       .  S
C549        C550   1.343       .  D
C550        H552   1.087       .  S
C553        H981   1.087       .  S
C553        C554   1.349   1_455  D
C554        H556   1.087       .  S
H555        C979   1.087       .  S
C557        H559   1.086       .  S
C557        C558   1.342       .  D
C558        H560   1.085       .  S
C561        H563   1.087       .  S
C561        C562   1.338       .  D
C562        H564   1.086       .  S
C565        H567   1.087       .  S
C565        C566   1.339   1_556  D
C569        C570   1.534       .  S
C569        C575   1.536       .  S
C569        C715   1.528       .  S
C569        C708   1.517       .  S
C570        H577   1.084       .  S
C570        C571   1.368       .  D
C571        C572   1.537       .  S
C571        C699   1.493       .  S
C572        C718   1.556       .  S
C572        C716   1.534       .  S
C572        H578   1.106       .  S
C573        C711   1.534       .  S
C573        H579   1.086       .  S
C573        C574   1.370       .  D
C574        C714   1.528       .  S
C574        C704   1.483       .  S
C575        H580   1.083       .  S
C575        C718   1.374       .  D
C576        C714   1.555       .  S
C576        C717   1.373       .  D
C576        C588   1.499       .  S
C581        C587   1.531       .  S
C581        C695   1.506       .  S
C582        H589   1.087       .  S
C582        C583   1.361       .  D
C583        C584   1.547       .  S
C583        C687   1.483       .  S
C584        C728   1.537       .  S
C584        H590   1.106       .  S
C585        H591   1.087       .  S
C585        C586   1.360       .  D
C586        C726   1.551       .  S
C586        C691   1.487       .  S
C587        H592   1.082       .  S
C587        C730   1.372       .  D
C588        C729   1.369       .  D
Zn593       O597   1.979       .  S
Zn593       O598   2.071       .  S
Zn593       O602   2.046       .  S
Zn593       O609   2.054       .  S
Zn594       O597   1.934       .  S
Zn594       O599   1.986       .  S
Zn594       O601   1.946       .  S
Zn594       O605   1.974       .  S
Zn595       O597   1.970       .  S
Zn595       O600   2.044       .  S
Zn595       O603   2.033       .  S
Zn595       O606   2.045       .  S
Zn596       O597   1.962       .  S
Zn596       O604   2.020       .  S
Zn596       O607   2.063       .  S
Zn596       O608   2.018       .  S
O598        C610   1.279       .  A
O599        C611   1.266       .  A
O600        C612   1.276       .  A
O601        C610   1.263       .  A
O602        C612   1.280       .  A
O603        C611   1.276       .  A
O604        C613   1.276       .  A
O605        C614   1.267       .  A
O606        C613   1.276       .  A
O607        C614   1.277       .  A
O608        C615   1.275       .  A
O609        C615   1.279       .  A
C610        C703   1.468       .  S
C611        C683   1.467       .  S
C612        C692   1.489       .  S
C613        C688   1.482       .  S
C614        C700   1.475       .  S
C615        C679   1.482       .  S
C616        C617   1.520       .  S
C616        C622   1.535       .  S
C616        C620   1.527       .  S
C616        C684   1.506       .  S
C617        H624   1.087       .  S
C617        C618   1.360   1_545  D
C618        C903   1.547       .  S
C618        C956   1.488       .  S
C619        C902   1.538       .  S
C619        C623   1.559       .  S
C619        C905   1.537       .  S
C619        H625   1.108       .  S
C620        H626   1.086       .  S
C620        C621   1.368   1_545  D
C621        C903   1.546       .  S
C621        C960   1.492       .  S
C622        H627   1.082       .  S
C622        C907   1.376   1_545  D
C623        C906   1.372       .  D
C623        C635   1.504       .  S
C628        C629   1.543       .  S
C628        C634   1.536       .  S
C628        C632   1.534       .  S
C628        C680   1.530       .  S
C629        H636   1.078       .  S
C629        C630   1.370       .  D
C630        C631   1.530       .  S
C630        C663   1.490       .  S
C631        C635   1.555       .  S
C631        C633   1.533       .  S
C631        H637   1.105       .  S
C632        H638   1.083       .  S
C632        C633   1.371       .  D
C633        C667   1.495       .  S
C634        H639   1.083       .  S
C634        C635   1.372       .  D
Zn640       O644   1.928       .  S
Zn640       O787   1.966       .  S
Zn640       O649   1.974       .  S
Zn640       O656   1.979       .  S
Zn641      O1070   1.970   1_544  S
Zn641       O646   2.021       .  S
Zn641       O932   2.060   1_545  S
Zn641       O652   2.016       .  S
Zn642       O928   1.954   1_545  S
Zn642       O931   2.046   1_545  S
Zn642       O650   2.006       .  S
Zn642       O653   1.987       .  S
Zn643       O651   2.032       .  S
Zn643       O796   2.041       .  S
Zn643       O655   2.057   1_655  S
O644      Zn1067   1.976       .  S
O644       Zn926   1.954       .  S
O645       Zn782   1.969   1_554  S
O645        C657   1.267       .  A
O646        C800   1.276   1_554  A
O647       Zn926   2.042       .  S
O647        C659   1.275       .  A
O648       Zn925   2.070       .  S
O648        C657   1.278       .  A
O649        C659   1.266       .  A
O650        C658   1.272       .  A
O651        C660   1.275       .  A
O654       Zn785   2.012   1_554  S
O654        C661   1.273       .  A
O656        C662   1.270       .  A
C657        C668   1.474       .  S
C658        O788   1.277       .  A
C658        C707   1.477       .  S
C659        C664   1.471       .  S
C660        C671   1.475       .  S
C661        C675   1.469       .  S
C662        C696   1.473       .  S
C663        H665   1.086       .  S
C663        C664   1.341       .  D
C664        H666   1.082       .  S
C667        H669   1.085       .  S
C667        C668   1.342       .  D
C668        H670   1.081       .  S
C671        H673   1.087       .  S
C671        C672   1.341       .  D
C672        H958   1.086       .  S
C672        C902   1.478       .  S
H674        C956   1.085       .  S
C675        H677   1.086       .  S
C675        C676   1.340       .  D
C676        H962   1.086       .  S
C676        C905   1.480       .  S
H678        C960   1.086       .  S
C679        H681   1.082       .  S
C679        C680   1.349       .  D
C680        H682   1.087       .  S
C683        H685   1.086       .  S
C683        C684   1.335       .  D
C684        H686   1.088       .  S
C687        H689   1.088       .  S
C687        C688   1.343       .  D
C688        H690   1.086       .  S
C691        H693   1.088       .  S
C691        C692   1.342       .  D
C692        H694   1.087       .  S
C695        C696   1.347       .  D
C696        H698   1.087       .  S
C699        H701   1.086       .  S
C699        C700   1.344       .  D
C700        H702   1.084       .  S
C703        H705   1.088       .  S
C703        C704   1.335       .  D
C704        H706   1.086       .  S
C707        H709   1.087       .  S
C707        C708   1.342       .  D
C708        H852   1.087       .  S
H710        C850   1.087       .  S
C711        C712   1.531   1_554  S
C711        C717   1.534       .  S
C711        C850   1.516       .  S
C712        H719   1.082       .  S
C712        C713   1.369       .  D
C713        C714   1.532   1_556  S
C713        C841   1.487       .  S
C714        H720   1.105       .  S
C715        H721   1.084       .  S
C715        C716   1.368       .  D
C716        C846   1.484       .  S
C717        H722   1.083       .  S
C718        C730   1.503       .  S
C723        C729   1.530       .  S
C723        C837   1.507       .  S
C724        H731   1.087       .  S
C724        C725   1.365       .  D
C725        C726   1.548   1_556  S
C725        C829   1.482       .  S
C726        H732   1.108       .  S
C727        H733   1.087       .  S
C727        C728   1.361       .  D
C728        C833   1.474       .  S
C729        H734   1.081       .  S
Zn735       O739   1.953       .  S
Zn735       O740   2.028       .  S
Zn735       O744   1.993       .  S
Zn735       O751   2.011       .  S
Zn736       O739   1.926       .  S
Zn736       O741   1.987       .  S
Zn736       O743   1.977       .  S
Zn736       O747   1.962       .  S
Zn737       O739   1.961       .  S
Zn737       O742   2.025       .  S
Zn737       O745   2.029       .  S
Zn737       O748   2.028       .  S
Zn738       O739   1.960       .  S
Zn738       O746   2.026       .  S
Zn738       O749   2.047       .  S
Zn738       O750   2.048       .  S
O740        C752   1.274       .  A
O741        C753   1.270       .  A
O742        C754   1.275       .  A
O743        C752   1.268       .  A
O744        C754   1.270       .  A
O745        C753   1.273       .  A
O746        C755   1.276       .  A
O747        C756   1.266       .  A
O748        C755   1.275       .  A
O749        C756   1.277       .  A
O750        C757   1.277       .  A
O751        C757   1.274       .  A
C752        C845   1.465       .  S
C753        C825   1.475       .  S
C754        C834   1.465       .  S
C755        C830   1.472       .  S
C756        C842   1.467       .  S
C757        C821   1.484       .  S
C758        C759   1.531       .  S
C758        C764   1.529       .  S
C758        C762   1.528       .  S
C758        C826   1.508       .  S
C759        H766   1.086       .  S
C759        C760   1.368       .  D
C760       C1045   1.543   1_545  S
C760       C1098   1.491   1_545  S
C761       C1044   1.536       .  S
C761        C765   1.546       .  S
C761       C1047   1.541       .  S
C761        H767   1.107       .  S
C762        H768   1.086       .  S
C762        C763   1.366       .  D
C763       C1045   1.548   1_545  S
C763       C1102   1.488   1_545  S
C764        H769   1.081       .  S
C764       C1049   1.370   1_545  D
C765       C1048   1.374       .  D
C765        C777   1.501       .  S
C770        C771   1.529       .  S
C770        C776   1.536       .  S
C770        C774   1.532       .  S
C770        C822   1.520       .  S
C771        H778   1.083       .  S
C771        C772   1.367       .  D
C772        C773   1.536       .  S
C772        C805   1.483       .  S
C773        C777   1.550       .  S
C773        C775   1.533       .  S
C773        H779   1.106       .  S
C774        H780   1.084       .  S
C774        C775   1.369       .  D
C775        C809   1.490       .  S
C776        H781   1.083       .  S
C776        C777   1.377       .  D
Zn782       O786   1.930   1_556  S
Zn782       O791   1.981       .  S
Zn782       O798   1.988       .  S
Zn783       O928   1.970   1_545  S
Zn783       O788   2.042       .  S
Zn783      O1074   2.059   1_545  S
Zn783       O794   2.038       .  S
Zn784      O1070   1.970   1_545  S
Zn784      O1073   2.060   1_545  S
Zn784       O792   2.033       .  S
Zn784       O795   2.028       .  S
Zn785       O793   2.025       .  S
Zn785       O797   2.027       .  S
O786       Zn925   1.974       .  S
O786      Zn1068   1.956   1_554  S
O787        C799   1.267       .  A
O789      Zn1068   2.022       .  S
O789        C801   1.273       .  A
O790      Zn1067   2.064       .  S
O790        C799   1.277       .  A
O791        C801   1.268       .  A
O792        C800   1.275       .  A
O793        C802   1.274       .  A
O796        C803   1.276       .  A
O798        C804   1.270       .  A
C799        C810   1.471       .  S
C800        C849   1.480       .  S
C801        C806   1.466       .  S
C802        C813   1.465       .  S
C803        C817   1.475       .  S
C804        C838   1.476       .  S
C805        H807   1.086       .  S
C805        C806   1.342       .  D
C806        H808   1.084       .  S
C809        H811   1.086       .  S
C809        C810   1.341       .  D
C810        H812   1.085       .  S
C813        H815   1.088       .  S
C813        C814   1.339       .  D
C814       H1100   1.086       .  S
C814       C1044   1.476       .  S
H816       C1098   1.086       .  S
C817        H819   1.087       .  S
C817        C818   1.344       .  D
C818       H1104   1.086       .  S
C818       C1047   1.484       .  S
H820       C1102   1.086       .  S
C821        H823   1.086       .  S
C821        C822   1.350       .  D
C822        H824   1.087       .  S
C825        H827   1.086       .  S
C825        C826   1.346       .  D
C826        H828   1.087       .  S
C829        H831   1.086       .  S
C829        C830   1.346       .  D
C830        H832   1.087       .  S
C833        H835   1.086       .  S
C833        C834   1.341       .  D
C834        H836   1.088       .  S
C837        C838   1.345   1_554  D
C838        H840   1.087       .  S
C841        H843   1.086       .  S
C841        C842   1.339       .  D
C842        H844   1.082       .  S
C845        H847   1.084       .  S
C845        C846   1.340       .  D
C846        H848   1.087       .  S
C849        H851   1.087       .  S
C849        C850   1.347   1_556  D
C853        C854   1.540       .  S
C853        C859   1.533       .  S
C853        C999   1.527       .  S
C853        C992   1.524       .  S
C854        H861   1.080       .  S
C854        C855   1.368       .  D
C855        C856   1.539       .  S
C855        C983   1.497       .  S
C856       C1002   1.554       .  S
C856       C1000   1.534       .  S
C856        H862   1.106       .  S
C857        C995   1.528       .  S
C857        H863   1.082       .  S
C857        C858   1.371       .  D
C858        C998   1.540       .  S
C858        C988   1.494       .  S
C859        H864   1.082       .  S
C859       C1002   1.373       .  D
C860        C998   1.557       .  S
C860       C1001   1.371       .  D
C860        C872   1.501       .  S
C865        C871   1.536       .  S
C865        C979   1.511       .  S
C866        H873   1.087       .  S
C866        C867   1.360       .  D
C867        C868   1.537       .  S
C867        C971   1.474       .  S
C868       C1012   1.537       .  S
C868        H874   1.106       .  S
C869        H875   1.086       .  S
C869        C870   1.366       .  D
C870       C1010   1.544   1_554  S
C870        C975   1.487       .  S
C871        H876   1.082       .  S
C871       C1014   1.373       .  D
C872       C1013   1.371   1_554  D
Zn877       O881   1.964       .  S
Zn877       O882   2.054       .  S
Zn877       O886   2.025       .  S
Zn877       O893   2.026       .  S
Zn878       O881   1.932       .  S
Zn878       O883   2.006       .  S
Zn878       O885   1.977       .  S
Zn878       O889   1.991       .  S
Zn879       O881   1.965       .  S
Zn879       O884   2.036       .  S
Zn879       O887   2.022       .  S
Zn879       O890   2.015       .  S
Zn880       O881   1.968       .  S
Zn880       O888   2.022       .  S
Zn880       O891   2.059       .  S
Zn880       O892   2.037       .  S
O882        C894   1.278       .  A
O883        C895   1.272       .  A
O884        C896   1.275       .  A
O885        C894   1.269       .  A
O886        C896   1.274       .  A
O887        C895   1.272       .  A
O888        C897   1.276       .  A
O889        C898   1.269       .  A
O890        C897   1.274       .  A
O891        C898   1.276       .  A
O892        C899   1.276       .  A
O893        C899   1.277       .  A
C894        C987   1.472       .  S
C895        C967   1.475       .  S
C896        C976   1.477       .  S
C897        C972   1.468       .  S
C898        C984   1.478       .  S
C899        C963   1.483       .  S
C900        C901   1.534       .  S
C900        C906   1.528       .  S
C900        C904   1.533       .  S
C900        C968   1.510       .  S
C901        H908   1.086       .  S
C901        C902   1.365       .  D
C903        C907   1.556       .  S
C903        H909   1.106       .  S
C904        H910   1.086       .  S
C904        C905   1.364       .  D
C906        H911   1.081       .  S
C907        C919   1.500       .  S
C912        C913   1.530       .  S
C912        C918   1.531       .  S
C912        C916   1.530       .  S
C912        C964   1.517       .  S
C913        H920   1.083       .  S
C913        C914   1.372       .  D
C914        C915   1.536       .  S
C914        C947   1.487       .  S
C915        C919   1.555       .  S
C915        C917   1.538       .  S
C915        H921   1.107       .  S
C916        H922   1.083       .  S
C916        C917   1.369       .  D
C917        C951   1.495       .  S
C918        H923   1.082       .  S
C918        C919   1.373       .  D
Zn924       O928   1.923       .  S
Zn924      O1071   1.957       .  S
Zn924       O933   1.966       .  S
Zn924       O940   1.983       .  S
Zn925       O930   2.042       .  S
Zn925       O936   2.048       .  S
Zn926       O934   1.993       .  S
Zn926       O937   2.008       .  S
Zn927       O935   2.067       .  S
Zn927      O1080   2.047       .  S
Zn927       O939   2.046   1_655  S
O929      Zn1066   1.978   1_554  S
O929        C941   1.268       .  A
O930       C1084   1.276       .  A
O931        C943   1.276       .  A
O932        C941   1.277       .  A
O933        C943   1.266       .  A
O934        C942   1.271       .  A
O935        C944   1.277       .  A
O938      Zn1069   2.070   1_554  S
O938        C945   1.280       .  A
O940        C946   1.269       .  A
C941        C952   1.474       .  S
C942       O1072   1.278       .  A
C942        C991   1.475       .  S
C943        C948   1.469       .  S
C944        C955   1.473       .  S
C945        C959   1.472   1_565  S
C946        C980   1.479       .  S
C947        H949   1.086       .  S
C947        C948   1.340       .  D
C948        H950   1.083       .  S
C951        H953   1.086       .  S
C951        C952   1.344       .  D
C952        H954   1.084       .  S
C955        H957   1.088   1_565  S
C955        C956   1.346       .  D
C959        H961   1.086       .  S
C959        C960   1.345   1_545  D
C963        H965   1.086       .  S
C963        C964   1.346       .  D
C964        H966   1.087       .  S
C967        H969   1.087       .  S
C967        C968   1.345       .  D
C968        H970   1.087       .  S
C971        H973   1.086       .  S
C971        C972   1.341       .  D
C972        H974   1.087       .  S
C975        H977   1.086       .  S
C975        C976   1.346       .  D
C976        H978   1.087       .  S
C979        C980   1.351       .  D
C980        H982   1.087       .  S
C983        H985   1.086       .  S
C983        C984   1.347       .  D
C984        H986   1.084       .  S
C987        H989   1.082       .  S
C987        C988   1.344       .  D
C988        H990   1.086       .  S
C991        H993   1.081       .  S
C991        C992   1.345       .  D
C992       H1136   1.087       .  S
H994       C1134   1.087       .  S
C995        C996   1.531   1_554  S
C995       C1001   1.530       .  S
C995       C1134   1.514       .  S
C996       H1003   1.083       .  S
C996        C997   1.371       .  D
C997        C998   1.538   1_556  S
C997       C1125   1.491       .  S
C998       H1004   1.107       .  S
C999       H1005   1.085       .  S
C999       C1000   1.369       .  D
C1000      C1130   1.482       .  S
C1001      H1006   1.082       .  S
C1002      C1014   1.503       .  S
C1007      C1013   1.534       .  S
C1007      C1121   1.510       .  S
C1008      H1015   1.087       .  S
C1008      C1009   1.365       .  D
C1009      C1010   1.543       .  S
C1009      C1113   1.484       .  S
C1010      H1016   1.107       .  S
C1011      H1017   1.086       .  S
C1011      C1012   1.365       .  D
C1012      C1117   1.484       .  S
C1013      H1018   1.082       .  S
Zn1019     O1023   1.960       .  S
Zn1019     O1024   2.030       .  S
Zn1019     O1028   1.995       .  S
Zn1019     O1035   2.028       .  S
Zn1020     O1023   1.937       .  S
Zn1020     O1025   2.003       .  S
Zn1020     O1027   1.977       .  S
Zn1020     O1031   1.982       .  S
Zn1021     O1023   1.982       .  S
Zn1021     O1026   2.056       .  S
Zn1021     O1029   2.049       .  S
Zn1021     O1032   2.059       .  S
Zn1022     O1023   1.958       .  S
Zn1022     O1030   1.983       .  S
Zn1022     O1033   2.046       .  S
Zn1022     O1034   2.022       .  S
O1024      C1036   1.275       .  A
O1025      C1037   1.271       .  A
O1026      C1038   1.279       .  A
O1027      C1036   1.268       .  A
O1028      C1038   1.271       .  A
O1029      C1037   1.276       .  A
O1030      C1039   1.271       .  A
O1031      C1040   1.268       .  A
O1032      C1039   1.279       .  A
O1033      C1040   1.276       .  A
O1034      C1041   1.272       .  A
O1035      C1041   1.274       .  A
C1036      C1129   1.465       .  S
C1037      C1109   1.482       .  S
C1038      C1118   1.472       .  S
C1039      C1114   1.468       .  S
C1040      C1126   1.471       .  S
C1041      C1105   1.482       .  S
C1042      C1043   1.529       .  S
C1042      C1048   1.538       .  S
C1042      C1046   1.531       .  S
C1042      C1110   1.516       .  S
C1043      H1050   1.087       .  S
C1043      C1044   1.365       .  D
C1045      C1049   1.556       .  S
C1045      H1051   1.107       .  S
C1046      H1052   1.086       .  S
C1046      C1047   1.368       .  D
C1048      H1053   1.082       .  S
C1049      C1061   1.502       .  S
C1054      C1055   1.534       .  S
C1054      C1060   1.535       .  S
C1054      C1058   1.530       .  S
C1054      C1106   1.518       .  S
C1055      H1062   1.084       .  S
C1055      C1056   1.370       .  D
C1056      C1057   1.534       .  S
C1056      C1089   1.489       .  S
C1057      C1061   1.557       .  S
C1057      C1059   1.532       .  S
C1057      H1063   1.106       .  S
C1058      H1064   1.084       .  S
C1058      C1059   1.369       .  D
C1059      C1093   1.487       .  S
C1060      H1065   1.083       .  S
C1060      C1061   1.373       .  D
Zn1066     O1070   1.930       .  S
Zn1066     O1075   1.970       .  S
Zn1066     O1082   1.999       .  S
Zn1067     O1072   2.050       .  S
Zn1067     O1078   2.035       .  S
Zn1068     O1076   2.007       .  S
Zn1068     O1079   2.000       .  S
Zn1069     O1077   2.074       .  S
Zn1069     O1081   2.046       .  S
O1071      C1083   1.265       .  A
O1073      C1085   1.277       .  A
O1074      C1083   1.278       .  A
O1075      C1085   1.266       .  A
O1076      C1084   1.272   1_556  A
O1077      C1086   1.280       .  A
O1080      C1087   1.278       .  A
O1082      C1088   1.271       .  A
C1083      C1094   1.468       .  S
C1084      C1133   1.467       .  S
C1085      C1090   1.472       .  S
C1086      C1097   1.474   1_565  S
C1087      C1101   1.472       .  S
C1088      C1122   1.476       .  S
C1089      H1091   1.086       .  S
C1089      C1090   1.340       .  D
C1090      H1092   1.085       .  S
C1093      H1095   1.086       .  S
C1093      C1094   1.339       .  D
C1094      H1096   1.085       .  S
C1097      H1099   1.087       .  S
C1097      C1098   1.344   1_545  D
C1101      H1103   1.086   1_565  S
C1101      C1102   1.346       .  D
C1105      H1107   1.086       .  S
C1105      C1106   1.345       .  D
C1106      H1108   1.087       .  S
C1109      H1111   1.087       .  S
C1109      C1110   1.350       .  D
C1110      H1112   1.087       .  S
C1113      H1115   1.086       .  S
C1113      C1114   1.342       .  D
C1114      H1116   1.088       .  S
C1117      H1119   1.086       .  S
C1117      C1118   1.342       .  D
C1118      H1120   1.087       .  S
C1121      C1122   1.347       .  D
C1122      H1124   1.087   1_556  S
C1125      H1127   1.086       .  S
C1125      C1126   1.344       .  D
C1126      H1128   1.082       .  S
C1129      H1131   1.085       .  S
C1129      C1130   1.340       .  D
C1130      H1132   1.086       .  S
C1133      H1135   1.086       .  S
C1133      C1134   1.345       .  D
