geometry optimzed in LAMMPS
_audit_creation_date              2020-11-30 
_audit_creation_method            'lammps2cif' 
_symmetry_space_group_name_H-M    'P1' 
_symmetry_Int_Tables_number       1 
_symmetry_cell_setting            triclinic 
loop_ 
_symmetry_equiv_pos_as_xyz 
  x,y,z 
_cell_length_a                    41.74270635 
_cell_length_b                    41.75445418328812 
_cell_length_c                    24.678622403204457 
_cell_angle_alpha                 90.09412838906692 
_cell_angle_beta                  89.56136546963053 
_cell_angle_gamma                 120.20377819922341 
loop_ 
_atom_site_label 
_atom_site_type_symbol 
_atom_site_fract_x 
_atom_site_fract_y 
_atom_site_fract_z 
_atom_site_charge 
C1          C  0.42874365  0.25398153  0.11489064     0.04300
C2          C  0.44202956  0.24168435  0.07111917    -0.11900
C3          C  0.43960826  0.20693039  0.07373316     0.01800
C4          C  0.42360255  0.18455793  0.11884595    -0.10400
C5          C  0.41093733  0.19625479  0.16262450     0.04300
C6          C  0.41366357  0.23109866  0.16109435    -0.09800
H7          H  0.45451319  0.25911797  0.03583604     0.09900
H8          H  0.42256713  0.15806050  0.12092468     0.07400
H9          H  0.40393628  0.24013187  0.19543398     0.07300
C10         C  0.24953091  0.79501055  0.35128180     0.04300
C11         C  0.23654269  0.77115199  0.30545163    -0.11900
C12         C  0.19986680  0.74129879  0.30437041     0.01800
C13         C  0.17707537  0.73431052  0.34920137    -0.10400
C14         C  0.18967438  0.75593240  0.39555531     0.04300
C15         C  0.22575294  0.78644837  0.39676488    -0.09800
H16         H  0.25446646  0.77592070  0.27079544     0.09900
H17         H  0.14938183  0.71015864  0.34895160     0.07400
H18         H  0.23469616  0.80371346  0.43255348     0.07300
C19         C  0.71006747  0.18886941  0.11653917     0.04300
C20         C  0.72400664  0.21474571  0.07305143    -0.11900
C21         C  0.75995949  0.24557771  0.07520081     0.01800
C22         C  0.78118986  0.25141224  0.12090055    -0.10400
C23         C  0.76852256  0.22663578  0.16419520     0.04300
C24         C  0.73265403  0.19541781  0.16259929    -0.09800
H25         H  0.70733977  0.21067813  0.03750633     0.09900
H26         H  0.80835753  0.27622766  0.12279067     0.07400
H27         H  0.72292423  0.17602189  0.19615130     0.07300
C28         C  0.50987033  0.72391323  0.35898126     0.04300
C29         C  0.49721893  0.73569891  0.31402677    -0.11900
C30         C  0.49831975  0.76994251  0.31582417     0.01800
C31         C  0.51188892  0.79191376  0.36155661    -0.10400
C32         C  0.52546767  0.78148073  0.40522439     0.04300
C33         C  0.52385635  0.74717281  0.40473190    -0.09800
H34         H  0.48680769  0.71856451  0.27821669     0.09900
H35         H  0.51228106  0.81812365  0.36288092     0.07400
H36         H  0.53449045  0.73924097  0.43893104     0.07300
C37         C  0.78891525  0.54235461  0.11571954     0.04300
C38         C  0.76620754  0.53218660  0.06909273    -0.11900
C39         C  0.73415659  0.53533749  0.06961537     0.01800
C40         C  0.72496624  0.54791095  0.11593854    -0.10400
C41         C  0.74658184  0.55756826  0.16217016     0.04300
C42         C  0.77850317  0.55456088  0.16253425    -0.09800
H43         H  0.76469705  0.51650439  0.52609828     0.09900
H44         H  0.69949086  0.54899576  0.11658116     0.07400
H45         H  0.79495901  0.56137772  0.19899098     0.07300
C46         C  0.16865170  0.44857219  0.36731369     0.04300
C47         C  0.19251776  0.45809184  0.32143925    -0.11900
C48         C  0.22396067  0.45400984  0.32327138     0.01800
C49         C  0.23111873  0.44021922  0.36977156    -0.10400
C50         C  0.20882796  0.43164992  0.41579060     0.04300
C51         C  0.17769849  0.43625140  0.41510655    -0.09800
H52         H  0.18663700  0.46847326  0.28489579     0.09900
H53         H  0.25601414  0.43811800  0.37110545     0.07400
H54         H  0.16036490  0.42964432  0.45097610     0.07300
O55         O  0.90956034  0.35437651  0.26588925    -0.79700
O56         O  0.98318140  0.49127528  0.43494705    -0.64400
O57         O  0.93865430  0.39885558  0.35858682    -1.11000
C58         C  0.83504240  0.41841342  0.36329640     1.07200
O59         O  0.93376528  0.46319400  0.48886026    -0.77600
O60         O  0.86169807  0.40672395  0.47028908    -0.65200
Ni61       Ni  0.95765440  0.39378126  0.29114326     1.34900
C62         C  0.85818293  0.37550937  0.45900840     0.85900
O63         O  0.00935066  0.44583137  0.39699789    -0.78200
O64         O  0.00826732  0.42922718  0.31072140    -0.88400
C65         C  0.96671809  0.48954590  0.48007621     0.85500
O66         O  0.95159942  0.43225049  0.25872117    -0.66600
O67         O  0.85376160  0.44663901  0.39382969    -0.85900
C68         C  0.97074246  0.46596814  0.27353667     0.86300
C69         C  0.02458576  0.43940966  0.35635399     1.07900
H70         H  0.91966324  0.46141035  0.35343813     0.39700
O71         O  0.91718672  0.44470832  0.38229565    -1.08600
O72         O  0.87873525  0.37270804  0.42369062    -0.65200
Ni73       Ni  0.89203204  0.39663987  0.35448200     1.26300
O74         O  0.98072752  0.47493393  0.32326888    -0.65500
O75         O  0.84612674  0.39603830  0.34987774    -0.77800
C76         C  0.87756164  0.33576495  0.28821057     0.85700
O77         O  0.86792996  0.34827892  0.32755542    -0.64900
Ni78       Ni  0.89418243  0.45519938  0.44077833     1.27400
Ni79       Ni  0.96340767  0.44645869  0.39180285     1.26100
H80         H  0.93750644  0.38049740  0.38356179     0.40200
O81         O  0.04834155  0.62912135  0.50619274    -0.79700
O82         O  0.96970977  0.49277044  0.18629279    -0.64400
O83         O  0.01424396  0.58397374  0.10530441    -1.11000
C84         C  0.11499126  0.56026333  0.10148069     1.07200
O85         O  0.01910310  0.52247365  0.23828844    -0.77600
O86         O  0.08907372  0.58129054  0.21387456    -0.65200
Ni87       Ni  0.98976688  0.58850796  0.04351506     1.34900
C88         C  0.09747408  0.61198571  0.19172129     0.85900
O89         O  0.94474010  0.53915965  0.15188366    -0.78200
O90         O  0.94089251  0.54983215  0.06494294    -0.88400
C91         C  0.98647737  0.49524812  0.23095776     0.85500
O92         O  0.99845492  0.55270028  0.00777177    -0.66600
O93         O  0.09997476  0.53935665  0.14294219    -0.85900
C94         C  0.98167361  0.51885260  0.02320185     0.86300
C95         C  0.92728740  0.54274984  0.11246338     1.07900
H96         H  0.02976106  0.51717734  0.10540792     0.39700
O97         O  0.03447401  0.53717913  0.12977979    -1.08600
O98         O  0.08307665  0.61408459  0.14797186    -0.65200
Ni99       Ni  0.05807853  0.58115794  0.08941898     1.26300
O100        O  0.97192740  0.50919403  0.07332077    -0.65500
O101        O  0.10058336  0.57657793  0.07637001    -0.77800
C102        C  0.06938752  0.64377879  0.02494065     0.85700
O103        O  0.08164596  0.62549585  0.04889051    -0.64900
Ni104      Ni  0.05917530  0.53110719  0.18950049     1.27400
Ni105      Ni  0.98968029  0.53735389  0.14201310     1.26100
H106        H  0.01940709  0.60364389  0.13053889     0.40200
O107        O  0.40721939  0.06086546  0.26462927    -0.79700
O108        O  0.47120311  0.98759096  0.43239788    -0.64400
O109        O  0.42088892  0.02995585  0.35725994    -1.11000
C110        C  0.54277657  0.13600513  0.36333512     1.07200
O111        O  0.48922452  0.03587364  0.48712095    -0.77600
O112        O  0.50388256  0.10810998  0.46960234    -0.65200
Ni113      Ni  0.39748738  0.01246237  0.28954527     1.34900
C114        C  0.47515382  0.10989425  0.45894734     0.85900
O115        O  0.39976749  0.95847867  0.39243073    -0.78200
O116        O  0.38153170  0.96182633  0.30857259    -0.88400
C117        C  0.48440618  0.00367435  0.47817058     0.85500
O118        O  0.44177873  0.01836365  0.25576597    -0.66600
O119        O  0.55272481  0.11736542  0.39296037    -0.85900
C120        C  0.45701538  0.99986491  0.26998080     0.86300
C121        C  0.37877415  0.94343538  0.35138167     1.07900
H122        H  0.50341130  0.05242088  0.35155316     0.39700
O123        O  0.48848507  0.05353896  0.38077725    -1.08600
O124        O  0.45204910  0.08803059  0.42486673    -0.65200
Ni125      Ni  0.46433142  0.07763756  0.35472916     1.26300
O126        O  0.45747632  0.99077085  0.31987972    -0.65500
O127        O  0.50904036  0.12465584  0.35119441    -0.77800
C128        C  0.41847181  0.09175844  0.28880157     0.85700
O129        O  0.43874922  0.10065377  0.32986332    -0.64900
Ni130      Ni  0.52096110  0.07644200  0.43977884     1.27400
Ni131      Ni  0.44499481  0.00608441  0.38915590     1.26100
H132        H  0.40300189  0.02962256  0.38269236     0.40200
O133        O  0.55043118  0.93188345  0.00704420    -0.79700
O134        O  0.48258081  0.99988418  0.18067648    -0.64400
O135        O  0.53231077  0.95821333  0.10065627    -1.11000
C136        C  0.41047682  0.85099586  0.11023389     1.07200
O137        O  0.46447535  0.95137628  0.23486058    -0.77600
O138        O  0.45130537  0.88012139  0.21477571    -0.65200
Ni139      Ni  0.55622214  0.97870712  0.03325006     1.34900
C140        C  0.47803878  0.87584129  0.19992166     0.85900
O141        O  0.55393728  0.02840698  0.14030778    -0.78200
O142        O  0.56899291  0.02863750  0.05352470    -0.88400
C143        C  0.46965465  0.98378751  0.22665656     0.85500
O144        O  0.51057496  0.97019183  0.00147006    -0.66600
O145        O  0.40111357  0.86935539  0.14194948    -0.85900
C146        C  0.49434925  0.98755189  0.01748118     0.86300
C147        C  0.57473435  0.04482376  0.09932579     1.07900
H148        H  0.44940259  0.93593949  0.09990552     0.39700
O149        O  0.46473504  0.93419504  0.12741687    -1.08600
O150        O  0.50058450  0.89623289  0.16341938    -0.65200
Ni151      Ni  0.48840700  0.91062606  0.09630682     1.26300
O152        O  0.49518332  0.99715290  0.06760000    -0.65500
O153        O  0.44350550  0.86374603  0.09226999    -0.77800
C154        C  0.53682336  0.89945460  0.02756609     0.85700
O155        O  0.51345753  0.88839788  0.06568329    -0.64900
Ni156      Ni  0.43297795  0.91082959  0.18751601     1.27400
Ni157      Ni  0.50834103  0.98139394  0.13570779     1.26100
H158        H  0.54991259  0.95756196  0.12500704     0.40200
C159        C  0.62073896  0.34281042  0.33034446     0.81400
N160        N  0.60572217  0.30556049  0.32854388    -0.76900
C161        C  0.62795447  0.29068308  0.32373361     0.83800
N162        N  0.66523507  0.31315746  0.32154266    -0.76900
C163        C  0.68041293  0.35052201  0.32318328     0.83900
N164        N  0.65808373  0.36528448  0.32781224    -0.78600
C165        C  0.33068506  0.64163748  0.09323613     0.81400
N166        N  0.34567845  0.67884322  0.09217846    -0.76900
C167        C  0.32365249  0.69381002  0.08625962     0.83800
N168        N  0.28640215  0.67132990  0.08167494    -0.76900
C169        C  0.27134669  0.63387410  0.08254121     0.83900
N170        N  0.29358996  0.61919621  0.08835366    -0.78600
O171        O  0.34418679  0.42452569  0.00992132    -0.79700
O172        O  0.47553173  0.48240720  0.18808457    -0.64400
O173        O  0.38569287  0.43711121  0.10509050    -1.11000
C174        C  0.40293369  0.55887618  0.12478344     1.07200
O175        O  0.44335384  0.49760733  0.24309677    -0.77600
O176        O  0.38651410  0.51265061  0.22586220    -0.65200
Ni177      Ni  0.38301456  0.41553485  0.03634401     1.34900
C178        C  0.35611806  0.48589183  0.20924280     0.85900
O179        O  0.43113910  0.41226533  0.14424369    -0.78200
O180        O  0.41802183  0.40017119  0.05668036    -0.88400
C181        C  0.47191338  0.49487688  0.23406866     0.85500
O182        O  0.42234617  0.46153140  0.00759284    -0.66600
O183        O  0.42926797  0.56655395  0.15799428    -0.85900
C184        C  0.45552989  0.47648206  0.02481123     0.86300
C185        C  0.42572787  0.39188046  0.10266664     1.07900
H186        H  0.44811897  0.51969318  0.11058073     0.39700
O187        O  0.42993304  0.50331671  0.13678598    -1.08600
O188        O  0.35527261  0.46594674  0.17012082    -0.65200
Ni189      Ni  0.38335992  0.48153286  0.10418572     1.26300
O190        O  0.46277443  0.47366399  0.07491292    -0.65500
O191        O  0.38259778  0.52680120  0.10429157    -0.77800
C192        C  0.32520169  0.43764014  0.03137980     0.85700
O193        O  0.33655403  0.45869311  0.07193958    -0.64900
Ni194      Ni  0.43655808  0.53202162  0.20002643     1.27400
Ni195      Ni  0.43195789  0.45880832  0.14197572     1.26100
H196        H  0.36650359  0.41863495  0.12824072     0.40200
O197        O  0.61401489  0.56695189  0.26374763    -0.79700
O198        O  0.47775537  0.50315332  0.43901687    -0.64400
O199        O  0.56837983  0.54902049  0.35588475    -1.11000
C200        C  0.54947714  0.42615737  0.37126986     1.07200
O201        O  0.50954816  0.48757794  0.49372176    -0.77600
O202        O  0.56765234  0.47408167  0.47481918    -0.65200
Ni203      Ni  0.57272696  0.57285235  0.28864185     1.34900
C204        C  0.59776488  0.50032797  0.45574865     0.85900
O205        O  0.52192618  0.57352073  0.39515281    -0.78200
O206        O  0.53557647  0.58572600  0.30760401    -0.88400
C207        C  0.48114208  0.49060772  0.48499192     0.85500
O208        O  0.53530121  0.52666509  0.25871439    -0.66600
O209        O  0.52493994  0.41904040  0.40805490    -0.85900
C210        C  0.50166439  0.51085023  0.27520903     0.86300
C211        C  0.52627591  0.59322586  0.35311379     1.07900
H212        H  0.50462843  0.46597446  0.36223032     0.39700
O213        O  0.52335272  0.48245927  0.38730120    -1.08600
O214        O  0.59848431  0.51848682  0.41467353    -0.65200
Ni215      Ni  0.56893878  0.50352826  0.35155196     1.26300
O216        O  0.49280826  0.51281630  0.32506360    -0.65500
O217        O  0.56846940  0.45784420  0.34897954    -0.77800
C218        C  0.62973866  0.54961556  0.28159639     0.79900
O219        O  0.61487151  0.52469514  0.31689780    -0.64900
Ni220      Ni  0.51729826  0.45363265  0.45032743     1.27400
Ni221      Ni  0.52178569  0.52717476  0.39289624     1.26100
H222        H  0.58749169  0.56651781  0.37968956     0.40200
C223        C  0.35360160  0.60176522  0.05734771     0.24800
C224        C  0.35438287  0.62545823  0.09805101    -0.23300
C225        C  0.37598351  0.63161371  0.14437655     0.19700
C226        C  0.39488355  0.61220712  0.15148453     0.24700
C227        C  0.39251892  0.58680480  0.11185092    -0.23300
C228        C  0.37297987  0.58302367  0.06369907     0.19600
F229        F  0.37087146  0.55950240  0.02394851    -0.13200
F230        F  0.33303383  0.59588966  0.01211507    -0.15600
F231        F  0.41256501  0.61579148  0.19901085    -0.15600
F232        F  0.37630362  0.65405599  0.18452612    -0.13200
C233        C  0.57401376  0.35090794  0.38260381     0.24800
C234        C  0.59697278  0.35897894  0.33674838    -0.23300
C235        C  0.59925657  0.38475474  0.29863799     0.19700
C236        C  0.58006371  0.40356383  0.30713174     0.24700
C237        C  0.55948304  0.39812691  0.35539042    -0.23300
C238        C  0.55545044  0.37051836  0.39212647     0.19600
F239        F  0.53622893  0.36462572  0.43923223    -0.13200
F240        F  0.57209445  0.32634360  0.42032247    -0.15600
F241        F  0.58346895  0.42875016  0.26935404    -0.15600
F242        F  0.62118911  0.39265961  0.25394804    -0.13200
C243        C  0.39176547  0.79354140  0.05581561     0.24800
C244        C  0.38316849  0.81192540  0.09657792    -0.23300
C245        C  0.35143100  0.79093270  0.12930457     0.19700
C246        C  0.33026509  0.75238384  0.12344893     0.24700
C247        C  0.34074532  0.73427402  0.08545230    -0.23300
C248        C  0.37097108  0.75513048  0.05083714     0.19600
F249        F  0.38123833  0.73804962  0.01337123    -0.13200
F250        F  0.42151562  0.81236517  0.02236170    -0.15600
F251        F  0.30150335  0.73247030  0.15804207    -0.15600
F252        F  0.34249784  0.80709907  0.16988086    -0.13200
C253        C  0.60255517  0.19599645  0.37474621     0.24800
C254        C  0.57030895  0.17368027  0.34467803    -0.23300
C255        C  0.56125255  0.18974619  0.30146780     0.19700
C256        C  0.58133403  0.22786821  0.29285422     0.24700
C257        C  0.61155343  0.25039072  0.32584588    -0.23300
C258        C  0.62319202  0.23416803  0.36506775     0.19600
F259        F  0.65245203  0.25568663  0.39739489    -0.13200
F260        F  0.61231382  0.18163043  0.41652383    -0.15600
F261        F  0.57038071  0.24300431  0.25361932    -0.15600
F262        F  0.53165430  0.16884679  0.26929460    -0.13200
C263        C  0.17182877  0.59669488  0.04410528     0.24800
C264        C  0.15315808  0.57003454  0.08531277    -0.23300
C265        C  0.17393097  0.55974794  0.11838017     0.19700
C266        C  0.21260969  0.57936763  0.11548653     0.24700
C267        C  0.23102874  0.60928318  0.07934386    -0.23300
C268        C  0.21044336  0.61653881  0.04188767     0.19600
F269        F  0.22776786  0.64372851  0.00419371    -0.13200
F270        F  0.15302829  0.60562494  0.00821856    -0.15600
F271        F  0.23200466  0.57115990  0.15128167    -0.15600
F272        F  0.15720994  0.53275405  0.15649850    -0.13200
C273        C  0.77550723  0.41934669  0.37426890     0.24800
C274        C  0.79753681  0.40860274  0.34469538    -0.23300
C275        C  0.78124570  0.38306830  0.30180742     0.19700
C276        C  0.74327442  0.36575343  0.29277104     0.24700
C277        C  0.72091259  0.37426671  0.32522773    -0.23300
C278        C  0.73746132  0.40251413  0.36415026     0.19600
F279        F  0.71456305  0.40139110  0.91182283    -0.13200
F280        F  0.78991400  0.44360427  0.41602627    -0.15600
F281        F  0.72808597  0.33946153  0.25362198    -0.15600
F282        F  0.80164945  0.37309027  0.27037594    -0.13200
C283        C  0.10765563  0.42812824  0.32337203     0.24800
C284        C  0.13301537  0.44873173  0.36404775    -0.23300
C285        C  0.12297357  0.46725994  0.40251708     0.19700
C286        C  0.08804263  0.46485637  0.40037512     0.24700
C287        C  0.06243934  0.44377643  0.35971989    -0.23300
C288        C  0.07299714  0.42553032  0.32126783     0.19600
F289        F  0.04921218  0.40371625  0.28223928    -0.13200
F290        F  0.11578249  0.40893588  0.28665578    -0.15600
F291        F  0.07951790  0.48337344  0.43770731    -0.15600
F292        F  0.14717761  0.48806573  0.44176545    -0.13200
C293        C  0.26492196  0.40042262  0.48744623     0.24800
C294        C  0.28682677  0.43234328  0.51848632    -0.23300
C295        C  0.27080620  0.44829494  0.02774955     0.19700
C296        C  0.24221518  0.45269565  0.50166802     0.24700
C297        C  0.22359884  0.42368512  0.46479136    -0.23300
C298        C  0.23318179  0.39584507  0.46157726     0.19600
F299        F  0.21503266  0.36711731  0.42672273    -0.13200
F300        F  0.27531746  0.37475206  0.47931799    -0.15600
F301        F  0.23339991  0.47980366  0.50574365    -0.15600
F302        F  0.28321592  0.47042581  0.07212175    -0.13200
C303        C  0.28449509  0.50053129  0.28457005     0.24800
C304        C  0.25239713  0.46555808  0.28017150    -0.23300
C305        C  0.25403946  0.43793460  0.24978854     0.19700
C306        C  0.28754928  0.44446692  0.22660255     0.24700
C307        C  0.32042432  0.47873363  0.23403681    -0.23300
C308        C  0.31812945  0.50715070  0.26170365     0.19600
F309        F  0.34853202  0.54127082  0.26756071    -0.13200
F310        F  0.28398674  0.52723126  0.31544628    -0.15600
F311        F  0.28807328  0.41645990  0.19934790    -0.15600
F312        F  0.22385052  0.40341842  0.24695884    -0.13200
C313        C  0.85763881  0.57403251  0.12707628     0.24800
C314        C  0.82403024  0.54141646  0.11608388    -0.23300
C315        C  0.82432999  0.50821693  0.10740750     0.19700
C316        C  0.85776891  0.50778721  0.10969095     0.24700
C317        C  0.89124150  0.54055050  0.12046993    -0.23300
C318        C  0.89088831  0.57360551  0.12888296     0.19600
F319        F  0.92316669  0.60590742  0.13656365    -0.13200
F320        F  0.85843639  0.60668943  0.13408196    -0.15600
F321        F  0.85764716  0.47569304  0.10017724    -0.15600
F322        F  0.79228467  0.47628884  0.09698771    -0.13200
C323        C  0.68938019  0.58936469  0.22996288     0.24800
C324        C  0.66662930  0.55756451  0.26105236    -0.23300
C325        C  0.67963515  0.53279716  0.27269938     0.19700
C326        C  0.71142571  0.53687401  0.24724820     0.24700
C327        C  0.73091430  0.56572345  0.21020258    -0.23300
C328        C  0.72171600  0.59372599  0.20560724     0.19600
F329        F  0.74112202  0.62248941  0.17096309    -0.13200
F330        F  0.67942848  0.61518164  0.22054516    -0.15600
F331        F  0.71993491  0.50962827  0.25271972    -0.15600
F332        F  0.66013750  0.50270256  0.30513348    -0.13200
C333        C  0.66431932  0.54596905  0.47479920     0.24800
C334        C  0.63391391  0.50966713  0.47951054    -0.23300
C335        C  0.63981898  0.48176266  0.50073579     0.19700
C336        C  0.67472273  0.49061802  0.52064315     0.24700
C337        C  0.70756813  0.52513463  0.02484120    -0.23300
C338        C  0.70409165  0.55371978  0.00072291     0.19600
F339        F  0.73244594  0.58930695  0.00354613    -0.13200
F340        F  0.66752189  0.57555128  0.95959199    -0.15600
F341        F  0.67907624  0.46374633  0.54432573    -0.15600
F342        F  0.61185983  0.44594184  0.50219457    -0.13200
C343        C  0.49879839  0.66367047  0.40064320     0.24800
C344        C  0.51144005  0.68901097  0.35694317    -0.23300
C345        C  0.52818447  0.68218090  0.31240520     0.19700
C346        C  0.53228880  0.65099334  0.31120541     0.24700
C347        C  0.51993543  0.62548452  0.35490418    -0.23300
C348        C  0.50305146  0.63229538  0.39971101     0.19600
F349        F  0.49070975  0.60876898  0.44272413    -0.13200
F350        F  0.48219686  0.66921734  0.44430053    -0.15600
F351        F  0.54982190  0.64680002  0.26753337    -0.15600
F352        F  0.54248128  0.70684593  0.27084353    -0.13200
C353        C  0.56548449  0.84457363  0.44010998     0.24800
C354        C  0.53903587  0.80732052  0.45107081    -0.23300
C355        C  0.51623707  0.79867786  0.49686745     0.19700
C356        C  0.51560036  0.82696750  0.52607338     0.24700
C357        C  0.53775194  0.86443332  0.50933535    -0.23300
C358        C  0.56447338  0.87300486  0.46842335     0.19600
F359        F  0.58774805  0.90860962  0.45296023    -0.13200
F360        F  0.58841780  0.85329136  0.39645511    -0.15600
F361        F  0.50095340  0.82352295  0.06340408    -0.15600
F362        F  0.49089178  0.76286457  0.50869040    -0.13200
C363        C  0.51569251  0.81206950  0.23696835     0.24800
C364        C  0.48760347  0.78621895  0.27134174    -0.23300
C365        C  0.45502667  0.78785775  0.27781180     0.19700
C366        C  0.45186852  0.81664090  0.25433219     0.24700
C367        C  0.48145105  0.84476871  0.22379351    -0.23300
C368        C  0.51263279  0.84090463  0.21310452     0.19600
F369        F  0.54108270  0.86594353  0.18172540    -0.13200
F370        F  0.54780856  0.81157789  0.23106309    -0.15600
F371        F  0.42004055  0.81730729  0.26296751    -0.15600
F372        F  0.42769668  0.76360358  0.31152147    -0.13200
C373        C  0.61492477  0.10492983  0.15097652     0.24800
C374        C  0.60689268  0.08373177  0.10313233    -0.23300
C375        C  0.63191114  0.09918596  0.05893158     0.19700
C376        C  0.66477715  0.13312514  0.06355658     0.24700
C377        C  0.67350045  0.15373785  0.11173207    -0.23300
C378        C  0.64775472  0.13959236  0.15510653     0.19600
F379        F  0.65428344  0.15932841  0.20156096    -0.13200
F380        F  0.59129816  0.09211449  0.19403100    -0.15600
F381        F  0.68910585  0.14477090  0.02129181    -0.15600
F382        F  0.62559638  0.08096162  0.01106359    -0.13200
C383        C  0.85895794  0.28065984  0.22749728     0.24800
C384        C  0.84947926  0.29884987  0.26697595    -0.23300
C385        C  0.81199646  0.28192165  0.28446753     0.19700
C386        C  0.78429166  0.25148360  0.25671965     0.24700
C387        C  0.79351397  0.23766082  0.21123203    -0.23300
C388        C  0.83116009  0.24957849  0.20095079     0.19600
F389        F  0.84070650  0.23542220  0.15829267    -0.13200
F390        F  0.89471395  0.29450034  0.21139385    -0.15600
F391        F  0.74821832  0.23934029  0.26915484    -0.15600
F392        F  0.80133960  0.29675813  0.32486567    -0.13200
C393        C  0.81869262  0.30580611  0.46576060     0.24800
C394        C  0.82805083  0.34131333  0.48534507    -0.23300
C395        C  0.80627624  0.34357179  0.52756641     0.19700
C396        C  0.77807351  0.31138209  0.55205402     0.24700
C397        C  0.77808528  0.27295143  0.03125411    -0.23300
C398        C  0.80959343  0.27530953  0.00620829     0.19600
F399        F  0.81610338  0.24662955  0.01016500    -0.13200
F400        F  0.83790415  0.30179933  0.42428369    -0.15600
F401        F  0.76039977  0.31450909  0.59644217    -0.15600
F402        F  0.81339219  0.37685917  0.54737154    -0.13200
C403        C  0.29699893  0.85264880  0.30336279     0.24800
C404        C  0.28609734  0.83046058  0.35018557    -0.23300
C405        C  0.30867745  0.84434217  0.39668827     0.19700
C406        C  0.33961880  0.88051447  0.39726863     0.24700
C407        C  0.34934391  0.90325789  0.35087194    -0.23300
C408        C  0.32842315  0.88784328  0.30321632     0.19600
F409        F  0.33720343  0.90725248  0.25602701    -0.13200
F410        F  0.27583807  0.84156166  0.25811448    -0.15600
F411        F  0.35925707  0.89346150  0.44368695    -0.15600
F412        F  0.30061643  0.82314485  0.44197387    -0.13200
C413        C  0.12814600  0.73246555  0.43834627     0.24800
C414        C  0.16534793  0.74160846  0.44346435    -0.23300
C415        C  0.17489471  0.72453251  0.48397778     0.19700
C416        C  0.14717773  0.69525107  0.51392682     0.24700
C417        C  0.10938499  0.68245277  0.50328724    -0.23300
C418        C  0.10026905  0.70269106  0.46739719     0.19600
F419        F  0.06435842  0.69248476  0.45814024    -0.13200
F420        F  0.11851429  0.74921445  0.39984196    -0.15600
F421        F  0.15746724  0.67737309  0.54955970    -0.15600
F422        F  0.21058441  0.73267146  0.48933501    -0.13200
C423        C  0.12548445  0.68003021  0.20988686     0.24800
C424        C  0.12680090  0.64716787  0.21553054    -0.23300
C425        C  0.15834517  0.64910298  0.23926299     0.19700
C426        C  0.18638668  0.68252643  0.26088834     0.24700
C427        C  0.18323869  0.71443979  0.25971058    -0.23300
C428        C  0.15337305  0.71327702  0.23188542     0.19600
F429        F  0.14925773  0.74353417  0.23113247    -0.13200
F430        F  0.09599720  0.67952021  0.18610518    -0.15600
F431        F  0.21493512  0.68295702  0.28753511    -0.15600
F432        F  0.16187392  0.61855078  0.24213355    -0.13200
C433        C  0.44301290  0.31558900  0.15507291     0.24800
C434        C  0.42967297  0.29009246  0.11184646    -0.23300
C435        C  0.41578343  0.29865163  0.06592768     0.19700
C436        C  0.41517627  0.33173996  0.06295945     0.24700
C437        C  0.42858489  0.35760202  0.10599172    -0.23300
C438        C  0.44251829  0.34897946  0.15219757     0.19600
F439        F  0.45563973  0.37270511  0.19473206    -0.13200
F440        F  0.45692110  0.30838223  0.19999968    -0.15600
F441        F  0.40004456  0.33756761  0.01820605    -0.15600
F442        F  0.40115245  0.27411578  0.02448676    -0.13200
C443        C  0.37415729  0.13538162  0.20700567     0.24800
C444        C  0.40116685  0.17311707  0.21154700    -0.23300
C445        C  0.42856715  0.18409459  0.25113210     0.19700
C446        C  0.43288960  0.15746920  0.27891449     0.24700
C447        C  0.40949141  0.11940114  0.26760696    -0.23300
C448        C  0.37849504  0.10859704  0.23449092     0.19600
F449        F  0.35368456  0.07219893  0.22614725    -0.13200
F450        F  0.34681660  0.12433930  0.16979683    -0.15600
F451        F  0.46231504  0.16928984  0.31254898    -0.15600
F452        F  0.45473818  0.22040736  0.25657110    -0.13200
C453        C  0.48489082  0.18882363  0.04404533     0.24800
C454        C  0.45374693  0.19192142  0.03182493    -0.23300
C455        C  0.42953965  0.16940489  0.99129451     0.19700
C456        C  0.44178570  0.14638710  0.46444567     0.24700
C457        C  0.46942901  0.13932456  0.48409128    -0.23300
C458        C  0.49036384  0.16187133  0.01895695     0.19600
F459        F  0.52012715  0.15908680  0.03380253    -0.13200
F460        F  0.50826494  0.20982824  0.08401213    -0.15600
F461        F  0.41906895  0.12600949  0.42357204    -0.15600
F462        F  0.40723969  0.17742358  0.47145967    -0.13200
C463        C  0.43168849  0.25717302  0.61325388     0.04300
C464        C  0.44724863  0.24572631  0.57110066    -0.11900
C465        C  0.44183536  0.20956961  0.57100914     0.01800
C466        C  0.42138826  0.18524195  0.61234969    -0.10400
C467        C  0.40779242  0.19621630  0.65575538     0.04300
C468        C  0.41245465  0.23197528  0.65612998    -0.09800
H469        H  0.46381438  0.26475905  0.53917711     0.09900
H470        H  0.41859682  0.15792663  0.61282366     0.07400
H471        H  0.40109413  0.23984274  0.68973607     0.07300
C472        C  0.23910097  0.79825928  0.86285349     0.04300
C473        C  0.22861366  0.77267781  0.81955589    -0.11900
C474        C  0.19373837  0.74046816  0.82010534     0.01800
C475        C  0.16972536  0.73353257  0.86329293    -0.10400
C476        C  0.17937156  0.75790206  0.90667899     0.04300
C477        C  0.21436177  0.79026800  0.90705578    -0.09800
H478        H  0.24721854  0.77791928  0.78558734     0.09900
H479        H  0.14311026  0.70796548  0.86356726     0.07400
H480        H  0.22183671  0.80931067  0.94073973     0.07300
C481        C  0.71035531  0.18753089  0.61716343     0.04300
C482        C  0.72111993  0.21478623  0.57573743    -0.11900
C483        C  0.75669624  0.24632023  0.57570974     0.01800
C484        C  0.78116379  0.25115081  0.61670826    -0.10400
C485        C  0.77083815  0.22643967  0.65968843     0.04300
C486        C  0.73555583  0.19431737  0.66000738    -0.09800
H487        H  0.70207858  0.21185112  0.54401990     0.09900
H488        H  0.80821944  0.27620616  0.61689036     0.07400
H489        H  0.72824980  0.17486037  0.69311435     0.07300
C490        C  0.52198105  0.73179957  0.86159225     0.04300
C491        C  0.50578961  0.74179811  0.81910115    -0.11900
C492        C  0.50706770  0.77618343  0.82053295     0.01800
C493        C  0.52521483  0.80047126  0.86270664    -0.10400
C494        C  0.54114860  0.79136184  0.90479088     0.04300
C495        C  0.53908698  0.75676325  0.90495109    -0.09800
H496        H  0.49214198  0.72298046  0.78577959     0.09900
H497        H  0.52575151  0.82675435  0.86373852     0.07400
H498        H  0.55125578  0.74966615  0.93808944     0.07300
C499        C  0.78735030  0.54204861  0.60431405     0.04300
C500        C  0.76212356  0.53122803  0.56045620    -0.11900
C501        C  0.73339101  0.53956431  0.56124495     0.01800
C502        C  0.72909211  0.55729770  0.60596127    -0.10400
C503        C  0.75137705  0.56543251  0.65130065     0.04300
C504        C  0.78098043  0.55849641  0.65032577    -0.09800
H505        H  0.77366221  0.52258227  0.03295815     0.09900
H506        H  0.70548245  0.56156045  0.60752341     0.07400
H507        H  0.79869998  0.56585811  0.68539442     0.07300
C508        C  0.17426716  0.45925331  0.86545041     0.04300
C509        C  0.20063274  0.47620867  0.82280834    -0.11900
C510        C  0.23358666  0.47499287  0.82285124     0.01800
C511        C  0.24073102  0.45781809  0.86510050    -0.10400
C512        C  0.21582666  0.44104523  0.90761050     0.04300
C513        C  0.18252626  0.44199037  0.90846490    -0.09800
H514        H  0.19565296  0.49015534  0.78980062     0.09900
H515        H  0.26675010  0.45777981  0.86489662     0.07400
H516        H  0.16300491  0.42863467  0.94144404     0.07300
O517        O  0.91248107  0.35858815  0.76084965    -0.79700
O518        O  0.98412190  0.49339198  0.93528133    -0.64400
O519        O  0.94072874  0.40234591  0.85475097    -1.11000
C520        C  0.83640443  0.42070052  0.86565263     1.07200
O521        O  0.93546066  0.46172204  0.98909790    -0.77600
O522        O  0.86349056  0.40532966  0.97008071    -0.65200
Ni523      Ni  0.96029544  0.39815065  0.78723802     1.34900
C524        C  0.86059159  0.37482769  0.95583330     0.85900
O525        O  0.01133003  0.44977963  0.89402173    -0.78200
O526        O  0.01093041  0.43368543  0.80766593    -0.88400
C527        C  0.96743932  0.48977164  0.98093771     0.85500
O528        O  0.95354256  0.43645113  0.75596581    -0.66600
O529        O  0.85459540  0.44749273  0.89865708    -0.85900
C530        C  0.97139461  0.46999540  0.77185235     0.86300
C531        C  0.02741128  0.44490314  0.85313290     1.07900
H532        H  0.92065761  0.46464751  0.85529771     0.39700
O533        O  0.91845213  0.44702152  0.88247656    -1.08600
O534        O  0.88043790  0.37333448  0.91818341    -0.65200
Ni535      Ni  0.89396373  0.40006171  0.85130212     1.26300
O536        O  0.98129235  0.47863997  0.82182014    -0.65500
O537        O  0.84804311  0.39949308  0.84838112    -0.77800
C538        C  0.87992353  0.34045313  0.78159648     0.85700
O539        O  0.87001711  0.35277891  0.82082689    -0.64900
Ni540      Ni  0.89533596  0.45488055  0.94350814     1.27400
Ni541      Ni  0.96497122  0.44936823  0.89000231     1.26100
H542        H  0.93959997  0.38368331  0.87907128     0.40200
O543        O  0.03493270  0.63110319  0.01771708    -0.79700
O544        O  0.96952240  0.49717752  0.68480126    -0.64400
O545        O  0.01655766  0.58801786  0.60207159    -1.11000
C546        C  0.11790118  0.56509267  0.61254093     1.07200
O547        O  0.01872342  0.52684418  0.73721835    -0.77600
O548        O  0.09140341  0.58103660  0.71668811    -0.65200
Ni549      Ni  0.99932751  0.59292482  0.53357837     1.34900
C550        C  0.09485132  0.61192135  0.70352740     0.85900
O551        O  0.94464550  0.54247262  0.64057136    -0.78200
O552        O  0.94813123  0.56049486  0.55426710    -0.88400
C553        C  0.98618766  0.49969810  0.72984082     0.85500
O554        O  0.00312962  0.55242498  0.50447911    -0.66600
O555        O  0.09828381  0.53774970  0.64438851    -0.85900
C556        C  0.98315505  0.51926289  0.52118857     0.86300
C557        C  0.93012660  0.54825407  0.59872026     1.07900
H558        H  0.03349416  0.52397296  0.60260465     0.39700
O559        O  0.03613726  0.54153836  0.63020883    -1.08600
O560        O  0.07465483  0.61388433  0.66750634    -0.65200
Ni561      Ni  0.06259027  0.58882010  0.59974568     1.26300
O562        O  0.97314970  0.51138907  0.57129506    -0.65500
O563        O  0.10797891  0.58798943  0.59715951    -0.77800
C564        C  0.08011890  0.64763525  0.52823366     0.85700
O565        O  0.08830680  0.63663620  0.57045995    -0.64900
Ni566      Ni  0.05811831  0.53195563  0.69043723     1.27400
Ni567      Ni  0.99035931  0.54114349  0.63817526     1.26100
H568        H  0.01792170  0.60710557  0.62569442     0.40200
O569        O  0.40249379  0.05864070  0.75849783    -0.79700
O570        O  0.46502156  0.98581807  0.93087414    -0.64400
O571        O  0.41668296  0.02940331  0.85241986    -1.11000
C572        C  0.53938415  0.13430162  0.85917333     1.07200
O573        O  0.48419917  0.03459430  0.98431473    -0.77600
O574        O  0.49875284  0.10611865  0.96519349    -0.65200
Ni575      Ni  0.39371966  0.01070779  0.78462445     1.34900
C576        C  0.47062720  0.10873558  0.95362590     0.85900
O577        O  0.39349077  0.95892838  0.89121407    -0.78200
O578        O  0.37845847  0.96027971  0.80487586    -0.88400
C579        C  0.47937866  0.00238775  0.97590812     0.85500
O580        O  0.43893244  0.01725520  0.75308940    -0.66600
O581        O  0.54836897  0.11535363  0.88980141    -0.85900
C582        C  0.45358648  0.99848852  0.76884104     0.86300
C583        C  0.37253226  0.94355240  0.85031350     1.07900
H584        H  0.49882899  0.04999387  0.84886392     0.39700
O585        O  0.48392000  0.05192760  0.87737453    -1.08600
O586        O  0.44827537  0.08851470  0.91752487    -0.65200
Ni587      Ni  0.46076912  0.07656781  0.84874477     1.26300
O588        O  0.45216423  0.98869100  0.81878783    -0.65500
O589        O  0.50607731  0.12324238  0.84475047    -0.77800
C590        C  0.41473257  0.09025182  0.78102618     0.85700
O591        O  0.43601958  0.09994315  0.82115749    -0.64900
Ni592      Ni  0.51617311  0.07470552  0.93651272     1.27400
Ni593      Ni  0.43974705  0.00523387  0.88670740     1.26100
H594        H  0.39879228  0.02990961  0.87696662     0.40200
O595        O  0.54590074  0.92576688  0.51156825    -0.79700
O596        O  0.48246542  0.99921916  0.68227418    -0.64400
O597        O  0.53063121  0.95470561  0.60550101    -1.11000
C598        C  0.40647972  0.85124156  0.60942506     1.07200
O599        O  0.46191156  0.95010846  0.73606004    -0.77600
O600        O  0.44649063  0.87766173  0.71731123    -0.65200
Ni601      Ni  0.55631790  0.97391775  0.53892543     1.34900
C602        C  0.47403238  0.87409120  0.70446395     0.85900
O603        O  0.55425305  0.02556335  0.64479940    -0.78200
O604        O  0.57340352  0.02465201  0.56020545    -0.88400
C605        C  0.46762134  0.98268718  0.72732653     0.85500
O606        O  0.51320124  0.96979119  0.50493918    -0.66600
O607        O  0.39735377  0.86930272  0.64206686    -0.85900
C608        C  0.49774130  0.98791595  0.52036077     0.86300
C609        C  0.57655245  0.04143988  0.60494575     1.07900
H610        H  0.44867976  0.93590976  0.60127558     0.39700
O611        O  0.46305820  0.93329303  0.62949431    -1.08600
O612        O  0.49661119  0.89428370  0.66813368    -0.65200
Ni613      Ni  0.48566047  0.90833874  0.60024530     1.26300
O614        O  0.49739366  0.99679959  0.57045983    -0.65500
O615        O  0.43990403  0.86274777  0.59473833    -0.77800
C616        C  0.53111250  0.89339958  0.53250047     0.85700
O617        O  0.50916212  0.88405316  0.57206353    -0.64900
Ni618      Ni  0.42993321  0.90993874  0.68866076     1.27400
Ni619      Ni  0.50779727  0.97948936  0.63908716     1.26100
H620        H  0.54732739  0.95321209  0.63079680     0.40200
C621        C  0.62222217  0.34186608  0.82859738     0.81400
N622        N  0.60677264  0.30459684  0.82537684    -0.76900
C623        C  0.62872570  0.28926733  0.82272407     0.83800
N624        N  0.66614368  0.31132915  0.82430024    -0.76900
C625        C  0.68156520  0.34869592  0.82756954     0.83900
N626        N  0.65954735  0.36381493  0.83000740    -0.78600
C627        C  0.33352910  0.64614138  0.58110151     0.81400
N628        N  0.34690235  0.68315536  0.57801317    -0.76900
C629        C  0.32328424  0.69647509  0.57346740     0.83800
N630        N  0.28620359  0.67258566  0.57258569    -0.76900
C631        C  0.27267755  0.63546651  0.57560052     0.83900
N632        N  0.29637877  0.62232143  0.58013543    -0.78600
O633        O  0.33998247  0.42435018  0.52029651    -0.79700
O634        O  0.47749201  0.48660388  0.68919941    -0.64400
O635        O  0.38501493  0.44064664  0.61208596    -1.11000
C636        C  0.40710178  0.56519002  0.62146919     1.07200
O637        O  0.44892910  0.50629802  0.74432820    -0.77600
O638        O  0.39262140  0.52251543  0.72695948    -0.65200
Ni639      Ni  0.37932994  0.41587176  0.54512801     1.34900
C640        C  0.36115626  0.49694045  0.71151882     0.85900
O641        O  0.43136199  0.41535533  0.64955690    -0.78200
O642        O  0.41449345  0.40037639  0.56358722    -0.88400
C643        C  0.47594687  0.50100187  0.73469363     0.85500
O644        O  0.41789300  0.46048400  0.51218043    -0.66600
O645        O  0.43373820  0.57316777  0.65438842    -0.85900
C646        C  0.45158283  0.47571578  0.52723887     0.86300
C647        C  0.42586093  0.39454457  0.60830766     1.07900
H648        H  0.44945927  0.52264211  0.61053576     0.39700
O649        O  0.43171188  0.50756990  0.63814278    -1.08600
O650        O  0.35827467  0.47470015  0.67455853    -0.65200
Ni651      Ni  0.38463551  0.48627516  0.60731885     1.26300
O652        O  0.46059329  0.47445551  0.57689664    -0.65500
O653        O  0.38591014  0.53261348  0.60312744    -0.77800
C654        C  0.32333804  0.44042076  0.53997680     0.85700
O655        O  0.33712485  0.46404986  0.57723045    -0.64900
Ni656      Ni  0.44151943  0.53943507  0.69856308     1.27400
Ni657      Ni  0.43244259  0.46235890  0.64589786     1.26100
H658        H  0.36620229  0.42370419  0.63718610     0.40200
O659        O  0.61774447  0.56635093  0.76018472    -0.79700
O660        O  0.48419486  0.50674596  0.93868567    -0.64400
O661        O  0.57521527  0.55319207  0.85556816    -1.11000
C662        C  0.55752707  0.43088965  0.87135848     1.07200
O663        O  0.51463294  0.48953086  0.99330661    -0.77600
O664        O  0.57282222  0.47573972  0.97414155    -0.65200
Ni665      Ni  0.57906454  0.57563952  0.78724972     1.34900
C666        C  0.60318476  0.50321484  0.95810938     0.85900
O667        O  0.52909106  0.57779631  0.89529615    -0.78200
O668        O  0.54446178  0.59156655  0.80814006    -0.88400
C669        C  0.48646633  0.49290547  0.98420843     0.85500
O670        O  0.53967784  0.53024914  0.75788472    -0.66600
O671        O  0.53084974  0.42286652  0.90467754    -0.85900
C672        C  0.50636134  0.51555826  0.77518429     0.86300
C673        C  0.53486659  0.59859056  0.85388833     1.07900
H674        H  0.51276086  0.47070771  0.85943430     0.39700
O675        O  0.53053101  0.48657733  0.88604958    -1.08600
O676        O  0.60413556  0.52374835  0.92002155    -0.65200
Ni677      Ni  0.57765539  0.50878410  0.85369654     1.26300
O678        O  0.49860739  0.51740211  0.82553353    -0.65500
O679        O  0.57865512  0.46346001  0.85255534    -0.77800
C680        C  0.63663913  0.55333518  0.78159891     0.79900
O681        O  0.62514374  0.53216287  0.82220508    -0.64900
Ni682      Ni  0.52288182  0.45652028  0.94831213     1.27400
Ni683      Ni  0.52849293  0.53113660  0.89252060     1.26100
H684        H  0.59410063  0.57142585  0.87891933     0.40200
C685        C  0.35969849  0.60809809  0.54745539     0.24800
C686        C  0.35883860  0.63161066  0.58717274    -0.23300
C687        C  0.37952519  0.63820646  0.63471528     0.19700
C688        C  0.39863111  0.61913119  0.64423817     0.24700
C689        C  0.39738912  0.59347164  0.60593279    -0.23300
C690        C  0.37917346  0.58955753  0.55636827     0.19600
F691        F  0.37831047  0.56592915  0.51774160    -0.13200
F692        F  0.34036180  0.60193135  0.50085814    -0.15600
F693        F  0.41522615  0.62313623  0.69286806    -0.15600
F694        F  0.37860230  0.66066131  0.67381246    -0.13200
C695        C  0.57790862  0.35269611  0.88176221     0.24800
C696        C  0.59914066  0.35876135  0.83453681    -0.23300
C697        C  0.60234141  0.38499092  0.79645427     0.19700
C698        C  0.58585241  0.40628948  0.80644213     0.24700
C699        C  0.56664519  0.40228759  0.85552277    -0.23300
C700        C  0.56181716  0.37445919  0.89242076     0.19600
F701        F  0.54449561  0.37051834  0.94081140    -0.13200
F702        F  0.57555443  0.32802654  0.91965173    -0.15600
F703        F  0.59026429  0.43213618  0.76918026    -0.15600
F704        F  0.62283898  0.39105165  0.75059757    -0.13200
C705        C  0.38844744  0.79746735  0.54772558     0.24800
C706        C  0.37854323  0.81382823  0.58994757    -0.23300
C707        C  0.34516880  0.79167242  0.61857329     0.19700
C708        C  0.32499248  0.75327796  0.60991526     0.24700
C709        C  0.33820504  0.73675082  0.57310482    -0.23300
C710        C  0.36887929  0.75926571  0.54022332     0.19600
F711        F  0.38100778  0.74403850  0.50242738    -0.13200
F712        F  0.41869729  0.81807068  0.51587256    -0.15600
F713        F  0.29462045  0.73196842  0.64109719    -0.15600
F714        F  0.33367874  0.80643867  0.65794974    -0.13200
C715        C  0.59799386  0.19400153  0.87647601     0.24800
C716        C  0.56786068  0.17209531  0.84240456    -0.23300
C717        C  0.56187659  0.18861081  0.79669074     0.19700
C718        C  0.58334970  0.22677467  0.78829985     0.24700
C719        C  0.61158131  0.24884374  0.82464679    -0.23300
C720        C  0.61978937  0.23212466  0.86744861     0.19600
F721        F  0.64658762  0.25318819  0.90360562    -0.13200
F722        F  0.60426511  0.17931301  0.92142702    -0.15600
F723        F  0.57563079  0.24243914  0.74591733    -0.15600
F724        F  0.53403149  0.16813048  0.76157622    -0.13200
C725        C  0.17129633  0.59527525  0.54827921     0.24800
C726        C  0.15532674  0.57353067  0.59516487    -0.23300
C727        C  0.17792402  0.56695872  0.63007735     0.19700
C728        C  0.21630486  0.58507588  0.62128632     0.24700
C729        C  0.23241318  0.61014398  0.57795368    -0.23300
C730        C  0.20957410  0.61394398  0.54034230     0.19600
F731        F  0.22451607  0.63710558  0.49718277    -0.13200
F732        F  0.15006192  0.60047140  0.51187130    -0.15600
F733        F  0.23800832  0.58096806  0.65806943    -0.15600
F734        F  0.16355925  0.54605695  0.67548333    -0.13200
C735        C  0.77525860  0.41643731  0.88415957     0.24800
C736        C  0.79865104  0.41077162  0.84901262    -0.23300
C737        C  0.78342738  0.38863059  0.80252256     0.19700
C738        C  0.74524405  0.36892951  0.79502939     0.24700
C739        C  0.72178454  0.37246824  0.83224180    -0.23300
C740        C  0.73699435  0.39754904  0.87548295     0.19600
F741        F  0.71632776  0.41138943  0.39582192    -0.13200
F742        F  0.78882851  0.43761414  0.92926270    -0.15600
F743        F  0.73109079  0.34561276  0.75214634    -0.15600
F744        F  0.80539707  0.38439123  0.76574592    -0.13200
C745        C  0.11845072  0.45000937  0.81360206     0.24800
C746        C  0.13761387  0.45788056  0.86298449    -0.23300
C747        C  0.12106436  0.46377771  0.90920826     0.19700
C748        C  0.08588206  0.46072167  0.90624378     0.24700
C749        C  0.06651387  0.45223030  0.85674385    -0.23300
C750        C  0.08406211  0.44798010  0.81026687     0.19600
F751        F  0.06772718  0.44094303  0.76092484    -0.13200
F752        F  0.13213989  0.44250860  0.76829642    -0.15600
F753        F  0.07069401  0.46556104  0.95213966    -0.15600
F754        F  0.13900588  0.47282147  0.95735775    -0.13200
C755        C  0.27319069  0.40518062  0.96418077     0.24800
C756        C  0.28911288  0.42973513  0.00790090    -0.23300
C757        C  0.27364472  0.45716227  0.52820299     0.19700
C758        C  0.24126664  0.44688917  0.99934729     0.24700
C759        C  0.22889187  0.42639803  0.95145230    -0.23300
C760        C  0.24286662  0.40299234  0.93693322     0.19600
F761        F  0.23093049  0.38242597  0.89100695    -0.13200
F762        F  0.28843315  0.38525804  0.94516831    -0.15600
F763        F  0.22835608  0.46965360  0.01444605    -0.15600
F764        F  0.29294297  0.48781223  0.55930459    -0.13200
C765        C  0.29651349  0.51954551  0.79111559     0.24800
C766        C  0.26162173  0.48898620  0.77924006    -0.23300
C767        C  0.25923248  0.46330851  0.74044027     0.19700
C768        C  0.29139539  0.46563649  0.71869160     0.24700
C769        C  0.32680186  0.49423097  0.73478366    -0.23300
C770        C  0.32879106  0.52217885  0.76931906     0.19600
F771        F  0.36194903  0.55143472  0.78395065    -0.13200
F772        F  0.29949515  0.54447329  0.82907173    -0.15600
F773        F  0.28760615  0.43868585  0.68401286    -0.15600
F774        F  0.22580073  0.43336685  0.72866234    -0.13200
C775        C  0.84216629  0.54675119  0.55347243     0.24800
C776        C  0.82104016  0.53788146  0.60152883    -0.23300
C777        C  0.83421696  0.52801286  0.64755470     0.19700
C778        C  0.86897207  0.53011697  0.64673144     0.24700
C779        C  0.89107048  0.54115220  0.59940504    -0.23300
C780        C  0.87618490  0.54785454  0.55215260     0.19600
F781        F  0.89502194  0.55697063  0.50427104    -0.13200
F782        F  0.83116773  0.55664744  0.50794498    -0.15600
F783        F  0.88120066  0.52213899  0.69273536    -0.15600
F784        F  0.81351857  0.51635761  0.69366703    -0.13200
C785        C  0.69517102  0.59493092  0.72918877     0.24800
C786        C  0.67296216  0.56190518  0.75815027    -0.23300
C787        C  0.68585447  0.53668175  0.76460017     0.19700
C788        C  0.71743403  0.54202583  0.73681525     0.24700
C789        C  0.73629101  0.57219982  0.70144455    -0.23300
C790        C  0.72683718  0.60017848  0.70136084     0.19600
F791        F  0.74546914  0.63022182  0.66860322    -0.13200
F792        F  0.68538939  0.62133579  0.72580554    -0.15600
F793        F  0.72611301  0.51474125  0.73796811    -0.15600
F794        F  0.66608447  0.50494810  0.79364621    -0.13200
C795        C  0.67020902  0.54668496  0.97945966     0.24800
C796        C  0.63892705  0.51078164  0.98180623    -0.23300
C797        C  0.64326879  0.48161651  0.00199652     0.19700
C798        C  0.67730661  0.48878590  0.02329076     0.24700
C799        C  0.70412439  0.52746586  0.51996548    -0.23300
C800        C  0.69895972  0.55472524  0.49487223     0.19600
F801        F  0.72674476  0.59065442  0.49445381    -0.13200
F802        F  0.66015526  0.57351423  0.45305558    -0.15600
F803        F  0.67974220  0.46081146  0.04712522    -0.15600
F804        F  0.61446120  0.44620100  0.00187119    -0.13200
C805        C  0.51283896  0.67252198  0.90486322     0.24800
C806        C  0.52298060  0.69647954  0.85964624    -0.23300
C807        C  0.53671482  0.68784774  0.81323895     0.19700
C808        C  0.54028809  0.65629450  0.81167592     0.24700
C809        C  0.52984841  0.63179848  0.85657834    -0.23300
C810        C  0.51631913  0.64064701  0.90343969     0.19600
F811        F  0.50687324  0.61883912  0.94824457    -0.13200
F812        F  0.49931168  0.67983806  0.95049406    -0.15600
F813        F  0.55537175  0.65073947  0.76621216    -0.15600
F814        F  0.54848942  0.71105699  0.76982773    -0.13200
C815        C  0.57897876  0.85503012  0.93985982     0.24800
C816        C  0.55417749  0.81727494  0.95077287    -0.23300
C817        C  0.53055571  0.80765261  0.99578757     0.19700
C818        C  0.52682660  0.83482404  0.02321556     0.24700
C819        C  0.54685217  0.87230952  0.00591013    -0.23300
C820        C  0.57498186  0.88242476  0.96662341     0.19600
F821        F  0.59684655  0.91832719  0.95131657    -0.13200
F822        F  0.60303235  0.86486677  0.89741207    -0.15600
F823        F  0.49070133  0.81707078  0.56743538    -0.15600
F824        F  0.50677305  0.77145355  0.00778878    -0.13200
C825        C  0.51248391  0.81009308  0.73556056     0.24800
C826        C  0.49064023  0.78969444  0.77995647    -0.23300
C827        C  0.46132797  0.79499601  0.79675351     0.19700
C828        C  0.45583473  0.82221960  0.77256227     0.24700
C829        C  0.47946201  0.84476131  0.73048642    -0.23300
C830        C  0.50700656  0.83720544  0.71096744     0.19600
F831        F  0.52983257  0.85693391  0.66929535    -0.13200
F832        F  0.54151466  0.80623261  0.71931785    -0.15600
F833        F  0.42844080  0.82755552  0.79233661    -0.15600
F834        F  0.44031312  0.77623885  0.84048171    -0.13200
C835        C  0.62041900  0.09895215  0.65885676     0.24800
C836        C  0.60780165  0.08077615  0.60875380    -0.23300
C837        C  0.62758400  0.09963873  0.56145626     0.19700
C838        C  0.66019333  0.13402928  0.56438056     0.24700
C839        C  0.67375014  0.15180819  0.61453460    -0.23300
C840        C  0.65265866  0.13414865  0.66165314     0.19600
F841        F  0.66302488  0.15085116  0.71072344    -0.13200
F842        F  0.60231739  0.08229580  0.70554195    -0.15600
F843        F  0.67940983  0.14881310  0.51767536    -0.15600
F844        F  0.61603821  0.08449101  0.51160992    -0.13200
C845        C  0.86112455  0.28356267  0.72424961     0.24800
C846        C  0.85147193  0.30394817  0.75945259    -0.23300
C847        C  0.81358425  0.28907686  0.77337802     0.19700
C848        C  0.78612936  0.25748981  0.74751721     0.24700
C849        C  0.79571209  0.24038039  0.70677959    -0.23300
C850        C  0.83341597  0.25171901  0.69868465     0.19600
F851        F  0.84330894  0.23505833  0.66007958    -0.13200
F852        F  0.89718269  0.29546875  0.71214788    -0.15600
F853        F  0.75002737  0.24723799  0.75613650    -0.15600
F854        F  0.80247828  0.30675170  0.80848487    -0.13200
C855        C  0.83635021  0.30826944  0.98167084     0.24800
C856        C  0.83221753  0.33972803  0.98181301    -0.23300
C857        C  0.79926307  0.33642087  0.00344253     0.19700
C858        C  0.77256021  0.30335506  0.02819677     0.24700
C859        C  0.77086805  0.27624206  0.53502416    -0.23300
C860        C  0.79024496  0.27371632  0.49018667     0.19600
F861        F  0.78410985  0.24008717  0.47353430    -0.13200
F862        F  0.86728069  0.30991909  0.96052822    -0.15600
F863        F  0.74273734  0.30196235  0.05298925    -0.15600
F864        F  0.79299197  0.36529875  0.00120286    -0.13200
C865        C  0.28360425  0.85553982  0.81217825     0.24800
C866        C  0.27455678  0.83428586  0.85976814    -0.23300
C867        C  0.29889118  0.84838112  0.90408192     0.19700
C868        C  0.33124159  0.88339254  0.90107002     0.24700
C869        C  0.34007107  0.90496670  0.85348026    -0.23300
C870        C  0.31586016  0.89004436  0.80877502     0.19600
F871        F  0.32241663  0.90915573  0.76160295    -0.13200
F872        F  0.26022856  0.84369895  0.76927565    -0.15600
F873        F  0.35355910  0.89621285  0.94500507    -0.15600
F874        F  0.29147977  0.82818659  0.95029247    -0.13200
C875        C  0.11543919  0.73208506  0.94123054     0.24800
C876        C  0.15300010  0.74487178  0.95258920    -0.23300
C877        C  0.16173952  0.73034099  0.99744312     0.19700
C878        C  0.13393096  0.69892131  0.02377043     0.24700
C879        C  0.09696879  0.68141513  0.00506933    -0.23300
C880        C  0.08759088  0.69995099  0.96628796     0.19600
F881        F  0.05219519  0.68529827  0.94878434    -0.13200
F882        F  0.10636115  0.74690241  0.89922193    -0.15600
F883        F  0.14381185  0.68427279  0.06506145    -0.15600
F884        F  0.19769154  0.74302879  0.01052508    -0.13200
C885        C  0.12706479  0.68111157  0.71625378     0.24800
C886        C  0.12421987  0.64671321  0.72849898    -0.23300
C887        C  0.15146183  0.64647833  0.76176925     0.19700
C888        C  0.17884732  0.67923898  0.78547756     0.24700
C889        C  0.17950604  0.71274158  0.77671246    -0.23300
C890        C  0.15442692  0.71370144  0.74024381     0.19600
F891        F  0.15398800  0.74567364  0.73244958    -0.13200
F892        F  0.10230768  0.68324179  0.68326455    -0.15600
F893        F  0.20254570  0.67769736  0.82134671    -0.15600
F894        F  0.15099254  0.61443918  0.77313260    -0.13200
C895        C  0.43995154  0.31565266  0.65983586     0.24800
C896        C  0.43457196  0.29466401  0.61211626    -0.23300
C897        C  0.42990490  0.30901515  0.56315204     0.19700
C898        C  0.42950854  0.34234167  0.56191618     0.24700
C899        C  0.43246498  0.36223318  0.60999466    -0.23300
C900        C  0.43856354  0.34872935  0.65885358     0.19600
F901        F  0.44222631  0.36688680  0.70612412    -0.13200
F902        F  0.44659661  0.30428319  0.70779129    -0.15600
F903        F  0.42509151  0.35438789  0.51297373    -0.15600
F904        F  0.42358042  0.28981569  0.51620464    -0.13200
C905        C  0.37077743  0.13402428  0.69732575     0.24800
C906        C  0.39695372  0.17191056  0.70379691    -0.23300
C907        C  0.42344527  0.18250356  0.74472912     0.19700
C908        C  0.42795776  0.15578244  0.77194363     0.24700
C909        C  0.40551431  0.11778147  0.75917614    -0.23300
C910        C  0.37522947  0.10708786  0.72441981     0.19600
F911        F  0.35127504  0.07075311  0.71406684    -0.13200
F912        F  0.34432567  0.12318910  0.65871207    -0.15600
F913        F  0.45677795  0.16767616  0.80675223    -0.15600
F914        F  0.44892869  0.21884978  0.75207844    -0.13200
C915        C  0.48734138  0.18998634  0.54851832     0.24800
C916        C  0.45811599  0.19504623  0.53135205    -0.23300
C917        C  0.43624735  0.17383659  0.48791851     0.19700
C918        C  0.43489199  0.14242784  0.96587044     0.24700
C919        C  0.46471323  0.13733333  0.98076175    -0.23300
C920        C  0.49304077  0.16257180  0.52519792     0.19600
F921        F  0.52061840  0.15776265  0.54489050    -0.13200
F922        F  0.50811634  0.20925867  0.59170072    -0.15600
F923        F  0.40993928  0.12050583  0.92812706    -0.15600
F924        F  0.39884896  0.17141046  0.97970179    -0.13200
loop_ 
_geom_bond_atom_site_label_1 
_geom_bond_atom_site_label_2 
_geom_bond_distance 
_geom_bond_site_symmetry_2 
_ccdc_geom_bond_type 
C1            C2   1.419       .  A
C1            C6   1.413       .  A
C1          C434   1.491       .  S
C2            C3   1.405       .  A
C2            H7   1.083       .  S
C3            C4   1.387       .  A
C3          C454   1.474       .  S
C4            C5   1.391       .  A
C4            H8   1.087       .  S
C5            C6   1.402       .  A
C5          C444   1.469       .  S
C6            H9   1.083       .  S
C10          C11   1.424       .  A
C10          C15   1.414       .  A
C10         C404   1.499       .  S
C11          C12   1.407       .  A
C11          H16   1.082       .  S
C12          C13   1.386       .  A
C12         C427   1.476       .  S
C13          C14   1.389       .  A
C13          H17   1.087       .  S
C14          C15   1.401       .  A
C14         C414   1.470       .  S
C15          H18   1.082       .  S
C19          C20   1.421       .  A
C19          C24   1.418       .  A
C19         C377   1.498       .  S
C20          C21   1.403       .  A
C20          H25   1.083       .  S
C21          C22   1.383       .  A
C21         C397   1.475       .  S
C22          C23   1.391       .  A
C22          H26   1.086       .  S
C23          C24   1.407       .  A
C23         C387   1.477       .  S
C24          H27   1.083       .  S
C28          C29   1.423       .  A
C28          C33   1.412       .  A
C28         C344   1.492       .  S
C29          C30   1.408       .  A
C29          H34   1.083       .  S
C30          C31   1.386       .  A
C30         C364   1.477       .  S
C31          C32   1.390       .  A
C31          H35   1.087       .  S
C32          C33   1.400       .  A
C32         C354   1.468       .  S
C33          H36   1.083       .  S
C37          C38   1.419       .  A
C37          C42   1.413       .  A
C37         C314   1.486       .  S
C38          C39   1.409       .  A
C38         H505   1.083       .  S
C39          C40   1.387       .  A
C39         C337   1.475       .  S
C40          C41   1.388       .  A
C40          H44   1.087       .  S
C41          C42   1.400       .  A
C41         C327   1.470       .  S
C42          H45   1.084       .  S
H43         C500   1.082       .  S
C46          C47   1.421       .  A
C46          C51   1.415       .  A
C46         C284   1.494       .  S
C47          C48   1.407       .  A
C47          H52   1.083       .  S
C48          C49   1.385       .  A
C48         C304   1.476       .  S
C49          C50   1.391       .  A
C49          H53   1.087       .  S
C50          C51   1.406       .  A
C50         C297   1.474       .  S
C51          H54   1.083       .  S
O55         Ni61   1.954       .  S
O55          C76   1.280       .  A
O56         Ni79   1.942       .  S
O56          C65   1.287       .  A
O57         Ni61   1.895       .  S
O57         Ni79   1.906       .  S
O57         Ni73   1.905       .  S
O57          H80   0.966       .  S
C58         C274   1.481       .  S
C58          O75   1.276       .  A
C58          O67   1.283       .  A
O59         Ni78   1.930       .  S
O59          C65   1.274       .  A
O60         Ni78   1.922       .  S
O60          C62   1.267       .  A
Ni61         O64   1.938   1_655  S
Ni61         O66   1.924       .  S
C62         C394   1.492       .  S
C62          O72   1.264       .  A
O63         Ni79   1.936   1_455  S
O63          C69   1.282       .  A
O64          C69   1.277       .  A
C65         C556   1.480       .  S
O66          C68   1.275       .  A
O67         Ni78   1.934       .  S
C68          C91   1.489       .  S
C68          O74   1.292       .  A
C69         C287   1.500       .  S
H70          O71   0.965       .  S
O71         Ni79   1.910       .  S
O71         Ni73   1.868       .  S
O71         Ni78   1.897       .  S
O72         Ni73   1.912       .  S
Ni73         O77   1.869       .  S
Ni73         O75   1.908       .  S
O74         Ni79   1.980       .  S
C76         C384   1.488       .  S
C76          O77   1.257       .  A
O81        Ni549   1.949   1_455  S
O81         C564   1.277       .  A
O82        Ni105   1.946       .  S
O82          C91   1.286       .  A
O83         Ni87   1.904   1_455  S
O83        Ni105   1.909   1_455  S
O83         Ni99   1.929       .  S
O83         H106   0.965       .  S
C84         C264   1.483       .  S
C84         O101   1.276       .  A
C84          O93   1.282       .  A
O85        Ni104   1.934       .  S
O85          C91   1.275   1_455  A
O86        Ni104   1.920       .  S
O86          C88   1.270       .  A
Ni87         O90   1.929       .  S
Ni87         O92   1.919       .  S
Ni87        O543   1.933   1_655  S
C88         C424   1.483       .  S
C88          O98   1.264       .  A
O89        Ni105   1.929       .  S
O89          C95   1.273       .  A
O90          C95   1.268       .  A
O92          C94   1.279       .  A
O93        Ni104   1.929       .  S
C94         C527   1.481   1_554  S
C94         O100   1.299       .  A
C95         C317   1.472       .  S
H96          O97   0.966       .  S
O97        Ni105   1.895   1_455  S
O97         Ni99   1.872       .  S
O97        Ni104   1.894       .  S
O98         Ni99   1.908       .  S
Ni99        O103   1.885       .  S
Ni99        O101   1.903       .  S
O100       Ni105   1.985       .  S
C102        C879   1.486       .  S
C102        O103   1.262       .  A
C102        O543   1.272       .  A
O107       Ni113   1.950       .  S
O107        C128   1.278       .  A
O108       Ni131   1.950   1_565  S
O108        C117   1.290   1_565  A
O109       Ni113   1.893       .  S
O109       Ni131   1.910       .  S
O109       Ni125   1.903       .  S
O109        H132   0.966       .  S
C110        C254   1.477       .  S
C110        O127   1.278       .  A
C110        O119   1.282       .  A
O111       Ni130   1.927       .  S
O111        C117   1.275       .  A
O112       Ni130   1.933       .  S
O112        C114   1.268       .  A
Ni113       O116   1.928   1_545  S
Ni113       O118   1.922       .  S
C114        C457   1.498       .  S
C114        O124   1.263       .  A
O115       Ni131   1.935   1_565  S
O115        C121   1.283       .  A
O116        C121   1.277       .  A
C117        C608   1.485   1_545  S
O118        C120   1.274   1_545  A
O119       Ni130   1.928       .  S
C120        C143   1.489       .  S
C120        O126   1.292       .  A
C121        C407   1.500       .  S
H122        O123   0.966       .  S
O123       Ni131   1.908       .  S
O123       Ni125   1.864       .  S
O123       Ni130   1.896       .  S
O124       Ni125   1.912       .  S
Ni125       O129   1.867       .  S
Ni125       O127   1.912       .  S
O126       Ni131   1.980   1_565  S
C128        C447   1.479       .  S
C128        O129   1.256       .  A
O133       Ni139   1.955       .  S
O133        C154   1.279       .  A
O134       Ni157   1.949       .  S
O134        C143   1.288       .  A
O135       Ni139   1.901       .  S
O135       Ni157   1.909       .  S
O135       Ni151   1.912       .  S
O135        H158   0.964       .  S
C136        C244   1.486       .  S
C136        O153   1.278       .  A
C136        O145   1.284       .  A
O137       Ni156   1.933       .  S
O137        C143   1.275       .  A
O138       Ni156   1.918       .  S
O138        C140   1.267       .  A
Ni139       O142   1.940   1_565  S
Ni139       O144   1.927       .  S
C140        C367   1.497       .  S
C140        O150   1.267       .  A
O141       Ni157   1.932   1_545  S
O141        C147   1.279       .  A
O142        C147   1.277       .  A
O144        C146   1.276       .  A
O145       Ni156   1.932       .  S
C146        C579   1.493   1_564  S
C146        O152   1.295       .  A
C147        C374   1.502       .  S
H148        O149   0.964       .  S
O149       Ni157   1.906       .  S
O149       Ni151   1.870       .  S
O149       Ni156   1.893       .  S
O150       Ni151   1.920       .  S
Ni151       O155   1.868       .  S
Ni151       O153   1.915       .  S
O152       Ni157   1.985       .  S
C154        C819   1.489       .  S
C154        O155   1.258       .  A
C159        C234   1.462       .  S
C159        N160   1.354       .  A
C159        N164   1.357       .  A
N160        C161   1.356       .  A
C161        C257   1.464       .  S
C161        N162   1.355       .  A
N162        C163   1.357       .  A
C163        C277   1.469       .  S
C163        N164   1.356       .  A
C165        C224   1.457       .  S
C165        N166   1.352       .  A
C165        N170   1.354       .  A
N166        C167   1.356       .  A
C167        C247   1.467       .  S
C167        N168   1.358       .  A
N168        C169   1.361       .  A
C169        C267   1.468       .  S
C169        N170   1.354       .  A
O171       Ni177   1.955       .  S
O171        C192   1.280       .  A
O172       Ni195   1.949       .  S
O172        C181   1.287       .  A
O173       Ni177   1.897       .  S
O173       Ni195   1.909       .  S
O173       Ni189   1.906       .  S
O173        H196   0.967       .  S
C174        C227   1.471       .  S
C174        O191   1.277       .  A
C174        O183   1.281       .  A
O175       Ni194   1.922       .  S
O175        C181   1.271       .  A
O176       Ni194   1.925       .  S
O176        C178   1.267       .  A
Ni177       O180   1.938       .  S
Ni177       O182   1.924       .  S
C178        C307   1.491       .  S
C178        O188   1.263       .  A
O179       Ni195   1.927       .  S
O179        C185   1.279       .  A
O180        C185   1.277       .  A
C181        C210   1.484       .  S
O182        C184   1.276       .  A
O183       Ni194   1.923       .  S
C184        C669   1.494   1_554  S
C184        O190   1.295       .  A
C185        C437   1.497       .  S
H186        O187   0.966       .  S
O187       Ni195   1.907       .  S
O187       Ni189   1.870       .  S
O187       Ni194   1.902       .  S
O188       Ni189   1.911       .  S
Ni189       O193   1.873       .  S
Ni189       O191   1.906       .  S
O190       Ni195   1.987       .  S
C192        C756   1.492       .  S
C192        O193   1.259       .  A
O197       Ni203   1.954       .  S
O197        C218   1.278       .  A
O198       Ni221   1.948       .  S
O198        C207   1.289       .  A
O199       Ni203   1.896       .  S
O199       Ni221   1.908       .  S
O199       Ni215   1.914       .  S
O199        H222   0.967       .  S
C200        C237   1.478       .  S
C200        O217   1.274       .  A
C200        O209   1.281       .  A
O201       Ni220   1.927       .  S
O201        C207   1.274       .  A
O202       Ni220   1.930       .  S
O202        C204   1.269       .  A
Ni203       O206   1.934       .  S
Ni203       O208   1.920       .  S
C204        C334   1.481       .  S
C204        O214   1.258       .  A
O205       Ni221   1.933       .  S
O205        C211   1.279       .  A
O206        C211   1.275       .  A
C207        C646   1.485       .  S
O208        C210   1.278       .  A
O209       Ni220   1.931       .  S
C210        O216   1.296       .  A
C211        C347   1.498       .  S
H212        O213   0.966       .  S
O213       Ni221   1.906       .  S
O213       Ni215   1.862       .  S
O213       Ni220   1.904       .  S
O214       Ni215   1.894       .  S
Ni215       O219   1.860       .  S
Ni215       O217   1.899       .  S
O216       Ni221   1.981       .  S
C218        C324   1.488       .  S
C218        O219   1.254       .  A
C223        C224   1.398       .  A
C223        C228   1.389       .  A
C223        F230   1.358       .  S
C224        C225   1.403       .  A
C225        C226   1.398       .  A
C225        F232   1.358       .  S
C226        C227   1.409       .  A
C226        F231   1.358       .  S
C227        C228   1.410       .  A
C228        F229   1.359       .  S
C233        C234   1.404       .  A
C233        C238   1.400       .  A
C233        F240   1.358       .  S
C234        C235   1.397       .  A
C235        C236   1.390       .  A
C235        F242   1.358       .  S
C236        C237   1.413       .  A
C236        F241   1.359       .  S
C237        C238   1.409       .  A
C238        F239   1.358       .  S
C243        C244   1.414       .  A
C243        C248   1.393       .  A
C243        F250   1.359       .  S
C244        C245   1.412       .  A
C245        C246   1.401       .  A
C245        F252   1.357       .  S
C246        C247   1.402       .  A
C246        F251   1.358       .  S
C247        C248   1.400       .  A
C248        F249   1.359       .  S
C253        C254   1.408       .  A
C253        C258   1.399       .  A
C253        F260   1.358       .  S
C254        C255   1.412       .  A
C255        C256   1.392       .  A
C255        F262   1.359       .  S
C256        C257   1.399       .  A
C256        F261   1.359       .  S
C257        C258   1.404       .  A
C258        F259   1.358       .  S
C263        C264   1.414       .  A
C263        C268   1.394       .  A
C263        F270   1.358       .  S
C264        C265   1.410       .  A
C265        C266   1.397       .  A
C265        F272   1.358       .  S
C266        C267   1.405       .  A
C266        F271   1.358       .  S
C267        C268   1.400       .  A
C268        F269   1.358       .  S
C273        C274   1.408       .  A
C273        C278   1.400       .  A
C273        F280   1.357       .  S
C274        C275   1.413       .  A
C275        C276   1.392       .  A
C275        F282   1.359       .  S
C276        C277   1.400       .  A
C276        F281   1.359       .  S
C277        C278   1.406       .  A
C278        F741   1.358       .  S
F279        C740   1.358       .  S
C283        C284   1.402       .  A
C283        C288   1.397       .  A
C283        F290   1.358       .  S
C284        C285   1.412       .  A
C285        C286   1.412       .  A
C285        F292   1.357       .  S
C286        C287   1.411       .  A
C286        F291   1.357       .  S
C287        C288   1.416       .  A
C288        F289   1.358       .  S
C293        C294   1.407       .  A
C293        C298   1.399       .  A
C293        F300   1.358       .  S
C294        C757   1.416       .  A
C294        C654   1.487       .  S
C295        C756   1.419       .  A
C295        C758   1.398   1_554  A
C295        F302   1.358       .  S
C296        C297   1.400       .  A
C296        C757   1.397       .  A
C296        F301   1.358       .  S
C297        C298   1.409       .  A
C298        F299   1.358       .  S
C303        C304   1.404       .  A
C303        C308   1.401       .  A
C303        F310   1.358       .  S
C304        C305   1.405       .  A
C305        C306   1.401       .  A
C305        F312   1.358       .  S
C306        C307   1.411       .  A
C306        F311   1.358       .  S
C307        C308   1.412       .  A
C308        F309   1.358       .  S
C313        C314   1.407       .  A
C313        C318   1.398       .  A
C313        F320   1.358       .  S
C314        C315   1.409       .  A
C315        C316   1.407       .  A
C315        F322   1.357       .  S
C316        C317   1.406       .  A
C316        F321   1.358       .  S
C317        C318   1.403       .  A
C318        F319   1.358       .  S
C323        C324   1.406       .  A
C323        C328   1.399       .  A
C323        F330   1.357       .  S
C324        C325   1.420       .  A
C325        C326   1.395       .  A
C325        F332   1.359       .  S
C326        C327   1.398       .  A
C326        F331   1.359       .  S
C327        C328   1.407       .  A
C328        F329   1.358       .  S
C333        C334   1.409       .  A
C333        C800   1.396       .  A
C333        F802   1.359       .  S
C334        C335   1.409       .  A
C335        C336   1.403       .  A
C335        F342   1.358       .  S
C336        C799   1.405       .  A
C336        F341   1.357       .  S
C337        C338   1.406       .  A
C337        C798   1.404       .  A
C338        C795   1.398   1_554  A
C338        F339   1.358       .  S
F340        C795   1.358       .  S
C343        C344   1.412       .  A
C343        C348   1.408       .  A
C343        F350   1.358       .  S
C344        C345   1.402       .  A
C345        C346   1.397       .  A
C345        F352   1.358       .  S
C346        C347   1.416       .  A
C346        F351   1.358       .  S
C347        C348   1.410       .  A
C348        F349   1.358       .  S
C353        C354   1.407       .  A
C353        C358   1.395       .  A
C353        F360   1.358       .  S
C354        C355   1.397       .  A
C355        C356   1.394       .  A
C355        F362   1.358       .  S
C356        C357   1.419       .  A
C356        F823   1.359       .  S
C357        C358   1.405       .  A
C357        C616   1.483       .  S
C358        F359   1.357       .  S
F361        C818   1.358       .  S
C363        C364   1.405       .  A
C363        C368   1.404       .  A
C363        F370   1.358       .  S
C364        C365   1.403       .  A
C365        C366   1.400       .  A
C365        F372   1.358       .  S
C366        C367   1.415       .  A
C366        F371   1.358       .  S
C367        C368   1.413       .  A
C368        F369   1.357       .  S
C373        C374   1.412       .  A
C373        C378   1.410       .  A
C373        F380   1.357       .  S
C374        C375   1.416       .  A
C375        C376   1.396       .  A
C375        F382   1.358       .  S
C376        C377   1.405       .  A
C376        F381   1.358       .  S
C377        C378   1.413       .  A
C378        F379   1.358       .  S
C383        C384   1.406       .  A
C383        C388   1.398       .  A
C383        F390   1.358       .  S
C384        C385   1.418       .  A
C385        C386   1.397       .  A
C385        F392   1.358       .  S
C386        C387   1.399       .  A
C386        F391   1.358       .  S
C387        C388   1.410       .  A
C388        F389   1.358       .  S
C393        C394   1.415       .  A
C393        C860   1.400       .  A
C393        F400   1.357       .  S
C394        C395   1.411       .  A
C395        C396   1.399       .  A
C395        F402   1.358       .  S
C396        C859   1.406       .  A
C396        F401   1.358       .  S
C397        C398   1.407       .  A
C397        C858   1.402       .  A
C398        C855   1.398   1_554  A
C398        F399   1.359       .  S
C403        C404   1.404       .  A
C403        C408   1.393       .  A
C403        F410   1.358       .  S
C404        C405   1.416       .  A
C405        C406   1.410       .  A
C405        F412   1.358       .  S
C406        C407   1.409       .  A
C406        F411   1.358       .  S
C407        C408   1.417       .  A
C408        F409   1.358       .  S
C413        C414   1.407       .  A
C413        C418   1.396       .  A
C413        F420   1.358       .  S
C414        C415   1.400       .  A
C415        C416   1.395       .  A
C415        F422   1.359       .  S
C416        C417   1.415       .  A
C416        F421   1.359       .  S
C417        C418   1.405       .  A
C417        C564   1.480       .  S
C418        F419   1.358       .  S
C423        C424   1.408       .  A
C423        C428   1.399       .  A
C423        F430   1.358       .  S
C424        C425   1.410       .  A
C425        C426   1.402       .  A
C425        F432   1.358       .  S
C426        C427   1.404       .  A
C426        F431   1.358       .  S
C427        C428   1.407       .  A
C428        F429   1.358       .  S
C433        C434   1.411       .  A
C433        C438   1.407       .  A
C433        F440   1.358       .  S
C434        C435   1.403       .  A
C435        C436   1.397       .  A
C435        F442   1.358       .  S
C436        C437   1.416       .  A
C436        F441   1.358       .  S
C437        C438   1.411       .  A
C438        F439   1.357       .  S
C443        C444   1.407       .  A
C443        C448   1.397       .  A
C443        F450   1.358       .  S
C444        C445   1.400       .  A
C445        C446   1.395       .  A
C445        F452   1.358       .  S
C446        C447   1.414       .  A
C446        F451   1.359       .  S
C447        C448   1.405       .  A
C448        F449   1.358       .  S
C453        C454   1.405       .  A
C453        C458   1.399       .  A
C453        F460   1.358       .  S
C454        C455   1.401   1_554  A
C455        C918   1.400       .  A
C455        F924   1.358       .  S
C456        C457   1.416       .  A
C456        C917   1.402       .  A
C456        F461   1.357       .  S
C457        C920   1.411       .  A
C458        C919   1.412   1_554  A
C458        F459   1.358       .  S
F462        C917   1.358       .  S
C463        C464   1.426       .  A
C463        C468   1.418       .  A
C463        C896   1.509       .  S
C464        C465   1.410       .  A
C464        H469   1.082       .  S
C465        C466   1.385       .  A
C465        C916   1.480       .  S
C466        C467   1.389       .  A
C466        H470   1.087       .  S
C467        C468   1.405       .  A
C467        C906   1.474       .  S
C468        H471   1.082       .  S
C472        C473   1.417       .  A
C472        C477   1.416       .  A
C472        C866   1.489       .  S
C473        C474   1.399       .  A
C473        H478   1.083       .  S
C474        C475   1.385       .  A
C474        C889   1.468       .  S
C475        C476   1.391       .  A
C475        H479   1.087       .  S
C476        C477   1.405       .  A
C476        C876   1.474       .  S
C477        H480   1.083       .  S
C481        C482   1.423       .  A
C481        C486   1.422       .  A
C481        C839   1.507       .  S
C482        C483   1.404       .  A
C482        H487   1.082       .  S
C483        C484   1.384       .  A
C483        C859   1.473       .  S
C484        C485   1.387       .  A
C484        H488   1.087       .  S
C485        C486   1.407       .  A
C485        C849   1.475       .  S
C486        H489   1.082       .  S
C490        C491   1.424       .  A
C490        C495   1.414       .  A
C490        C806   1.497       .  S
C491        C492   1.410       .  A
C491        H496   1.083       .  S
C492        C493   1.386       .  A
C492        C826   1.481       .  S
C493        C494   1.390       .  A
C493        H497   1.087       .  S
C494        C495   1.403       .  A
C494        C816   1.472       .  S
C495        H498   1.083       .  S
C499        C500   1.422       .  A
C499        C504   1.417       .  A
C499        C776   1.502       .  S
C500        C501   1.407       .  A
C501        C502   1.388       .  A
C501        C799   1.477       .  S
C502        C503   1.389       .  A
C502        H506   1.086       .  S
C503        C504   1.404       .  A
C503        C789   1.474       .  S
C504        H507   1.082       .  S
C508        C509   1.421       .  A
C508        C513   1.422       .  A
C508        C746   1.504       .  S
C509        C510   1.402       .  A
C509        H514   1.083       .  S
C510        C511   1.383       .  A
C510        C766   1.471       .  S
C511        C512   1.387       .  A
C511        H515   1.087       .  S
C512        C513   1.410       .  A
C512        C759   1.479       .  S
C513        H516   1.082       .  S
O517       Ni523   1.958       .  S
O517        C538   1.280       .  A
O518       Ni541   1.948       .  S
O518        C527   1.288       .  A
O519       Ni523   1.896       .  S
O519       Ni541   1.909       .  S
O519       Ni535   1.908       .  S
O519        H542   0.966       .  S
C520        C736   1.475       .  S
C520        O537   1.277       .  A
C520        O529   1.282       .  A
O521       Ni540   1.923       .  S
O521        C527   1.272       .  A
O522       Ni540   1.924       .  S
O522        C524   1.267       .  A
Ni523       O526   1.945   1_655  S
Ni523       O528   1.922       .  S
C524        C856   1.486       .  S
C524        O534   1.262       .  A
O525       Ni541   1.930   1_455  S
O525        C531   1.279       .  A
O526        C531   1.280       .  A
O528        C530   1.274       .  A
O529       Ni540   1.927       .  S
C530        C553   1.489       .  S
C530        O536   1.295       .  A
C531        C749   1.505       .  S
H532        O533   0.966       .  S
O533       Ni541   1.905       .  S
O533       Ni535   1.863       .  S
O533       Ni540   1.898       .  S
O534       Ni535   1.910       .  S
Ni535       O539   1.866       .  S
Ni535       O537   1.907       .  S
O536       Ni541   1.985       .  S
C538        C846   1.489       .  S
C538        O539   1.257       .  A
O544       Ni567   1.958       .  S
O544        C553   1.292       .  A
O545       Ni549   1.893   1_455  S
O545       Ni567   1.913   1_455  S
O545       Ni561   1.905       .  S
O545        H568   0.965       .  S
C546        C726   1.478       .  S
C546        O563   1.277       .  A
C546        O555   1.282       .  A
O547       Ni566   1.924       .  S
O547        C553   1.271   1_455  A
O548       Ni566   1.922       .  S
O548        C550   1.266       .  A
Ni549       O552   1.933       .  S
Ni549       O554   1.914   1_655  S
C550        C886   1.487       .  S
C550        O560   1.261       .  A
O551       Ni567   1.937       .  S
O551        C557   1.284       .  A
O552        C557   1.278       .  A
O554        C556   1.272   1_455  A
O555       Ni566   1.930       .  S
C556        O562   1.291       .  A
C557        C779   1.503       .  S
H558        O559   0.966       .  S
O559       Ni567   1.911   1_455  S
O559       Ni561   1.866       .  S
O559       Ni566   1.898       .  S
O560       Ni561   1.903       .  S
Ni561       O565   1.870       .  S
Ni561       O563   1.913       .  S
O562       Ni567   1.974       .  S
C564        O565   1.256       .  A
O569       Ni575   1.954       .  S
O569        C590   1.279       .  A
O570       Ni593   1.959   1_565  S
O570        C579   1.290   1_565  A
O571       Ni575   1.896       .  S
O571       Ni593   1.912       .  S
O571       Ni587   1.904       .  S
O571        H594   0.966       .  S
C572        C716   1.477       .  S
C572        O589   1.278       .  A
C572        O581   1.282       .  A
O573       Ni592   1.926       .  S
O573        C579   1.273       .  A
O574       Ni592   1.923       .  S
O574        C576   1.267       .  A
Ni575       O578   1.933   1_545  S
Ni575       O580   1.924       .  S
C576        C919   1.492       .  S
C576        O586   1.263       .  A
O577       Ni593   1.929   1_565  S
O577        C583   1.282       .  A
O578        C583   1.277       .  A
O580        C582   1.275   1_545  A
O581       Ni592   1.924       .  S
C582        C605   1.485       .  S
C582        O588   1.291       .  A
C583        C869   1.497       .  S
H584        O585   0.966       .  S
O585       Ni593   1.906       .  S
O585       Ni587   1.872       .  S
O585       Ni592   1.893       .  S
O586       Ni587   1.910       .  S
Ni587       O591   1.874       .  S
Ni587       O589   1.917       .  S
O588       Ni593   1.974   1_565  S
C590        C909   1.487       .  S
C590        O591   1.259       .  A
O595       Ni601   1.951       .  S
O595        C616   1.278       .  A
O596       Ni619   1.947       .  S
O596        C605   1.288       .  A
O597       Ni601   1.899       .  S
O597       Ni619   1.909       .  S
O597       Ni613   1.907       .  S
O597        H620   0.964       .  S
C598        C706   1.485       .  S
C598        O615   1.276       .  A
C598        O607   1.283       .  A
O599       Ni618   1.931       .  S
O599        C605   1.276       .  A
O600       Ni618   1.934       .  S
O600        C602   1.269       .  A
Ni601       O604   1.938   1_565  S
Ni601       O606   1.919       .  S
C602        C829   1.499       .  S
C602        O612   1.262       .  A
O603       Ni619   1.932   1_545  S
O603        C609   1.281       .  A
O604        C609   1.279       .  A
O606        C608   1.273       .  A
O607       Ni618   1.936       .  S
C608        O614   1.292       .  A
C609        C836   1.501       .  S
H610        O611   0.964       .  S
O611       Ni619   1.909       .  S
O611       Ni613   1.864       .  S
O611       Ni618   1.901       .  S
O612       Ni613   1.909       .  S
Ni613       O617   1.861       .  S
Ni613       O615   1.907       .  S
O614       Ni619   1.977       .  S
C616        O617   1.254       .  A
C621        C696   1.459       .  S
C621        N622   1.354       .  A
C621        N626   1.354       .  A
N622        C623   1.358       .  A
C623        C719   1.465       .  S
C623        N624   1.358       .  A
N624        C625   1.358       .  A
C625        C739   1.464       .  S
C625        N626   1.353       .  A
C627        C686   1.468       .  S
C627        N628   1.356       .  A
C627        N632   1.358       .  A
N628        C629   1.359       .  A
C629        C709   1.470       .  S
C629        N630   1.356       .  A
N630        C631   1.359       .  A
C631        C729   1.469       .  S
C631        N632   1.357       .  A
O633       Ni639   1.949       .  S
O633        C654   1.277       .  A
O634       Ni657   1.953       .  S
O634        C643   1.289       .  A
O635       Ni639   1.900       .  S
O635       Ni657   1.912       .  S
O635       Ni651   1.917       .  S
O635        H658   0.967       .  S
C636        C689   1.480       .  S
C636        O653   1.277       .  A
C636        O645   1.284       .  A
O637       Ni656   1.930       .  S
O637        C643   1.274       .  A
O638       Ni656   1.920       .  S
O638        C640   1.267       .  A
Ni639       O642   1.936       .  S
Ni639       O644   1.921       .  S
C640        C769   1.491       .  S
C640        O650   1.263       .  A
O641       Ni657   1.943       .  S
O641        C647   1.282       .  A
O642        C647   1.276       .  A
C643        C672   1.490       .  S
O644        C646   1.276       .  A
O645       Ni656   1.936       .  S
C646        O652   1.294       .  A
C647        C899   1.507       .  S
H648        O649   0.966       .  S
O649       Ni657   1.913       .  S
O649       Ni651   1.869       .  S
O649       Ni656   1.902       .  S
O650       Ni651   1.907       .  S
Ni651       O655   1.875       .  S
Ni651       O653   1.912       .  S
O652       Ni657   1.978       .  S
C654        O655   1.258       .  A
O659       Ni665   1.954       .  S
O659        C680   1.279       .  A
O660       Ni683   1.957       .  S
O660        C669   1.290       .  A
O661       Ni665   1.896       .  S
O661       Ni683   1.911       .  S
O661       Ni677   1.908       .  S
O661        H684   0.967       .  S
C662        C699   1.476       .  S
C662        O679   1.277       .  A
C662        O671   1.281       .  A
O663       Ni682   1.928       .  S
O663        C669   1.274       .  A
O664       Ni682   1.932       .  S
O664        C666   1.269       .  A
Ni665       O668   1.936       .  S
Ni665       O670   1.923       .  S
C666        C796   1.485       .  S
C666        O676   1.260       .  A
O667       Ni683   1.937       .  S
O667        C673   1.282       .  A
O668        C673   1.277       .  A
O670        C672   1.275       .  A
O671       Ni682   1.925       .  S
C672        O678   1.294       .  A
C673        C809   1.504       .  S
H674        O675   0.966       .  S
O675       Ni683   1.911       .  S
O675       Ni677   1.873       .  S
O675       Ni682   1.906       .  S
O676       Ni677   1.903       .  S
Ni677       O681   1.876       .  S
Ni677       O679   1.914       .  S
O678       Ni683   1.982       .  S
C680        C786   1.484       .  S
C680        O681   1.259       .  A
C685        C686   1.399       .  A
C685        C690   1.395       .  A
C685        F692   1.358       .  S
C686        C687   1.405       .  A
C687        C688   1.403       .  A
C687        F694   1.358       .  S
C688        C689   1.409       .  A
C688        F693   1.358       .  S
C689        C690   1.411       .  A
C690        F691   1.358       .  S
C695        C696   1.403       .  A
C695        C700   1.399       .  A
C695        F702   1.358       .  S
C696        C697   1.398       .  A
C697        C698   1.392       .  A
C697        F704   1.358       .  S
C698        C699   1.410       .  A
C698        F703   1.358       .  S
C699        C700   1.409       .  A
C700        F701   1.358       .  S
C705        C706   1.414       .  A
C705        C710   1.391       .  A
C705        F712   1.359       .  S
C706        C707   1.409       .  A
C707        C708   1.403       .  A
C707        F714   1.358       .  S
C708        C709   1.407       .  A
C708        F713   1.358       .  S
C709        C710   1.399       .  A
C710        F711   1.358       .  S
C715        C716   1.408       .  A
C715        C720   1.397       .  A
C715        F722   1.358       .  S
C716        C717   1.411       .  A
C717        C718   1.395       .  A
C717        F724   1.359       .  S
C718        C719   1.401       .  A
C718        F723   1.358       .  S
C719        C720   1.403       .  A
C720        F721   1.358       .  S
C725        C726   1.411       .  A
C725        C730   1.393       .  A
C725        F732   1.359       .  S
C726        C727   1.408       .  A
C727        C728   1.401       .  A
C727        F734   1.358       .  S
C728        C729   1.406       .  A
C728        F733   1.358       .  S
C729        C730   1.401       .  A
C730        F731   1.358       .  S
C735        C736   1.407       .  A
C735        C740   1.399       .  A
C735        F742   1.358       .  S
C736        C737   1.411       .  A
C737        C738   1.391       .  A
C737        F744   1.359       .  S
C738        C739   1.398       .  A
C738        F743   1.358       .  S
C739        C740   1.406       .  A
C745        C746   1.408       .  A
C745        C750   1.398       .  A
C745        F752   1.358       .  S
C746        C747   1.413       .  A
C747        C748   1.411       .  A
C747        F754   1.358       .  S
C748        C749   1.413       .  A
C748        F753   1.358       .  S
C749        C750   1.415       .  A
C750        F751   1.358       .  S
C755        C756   1.407   1_556  A
C755        C760   1.400       .  A
C755        F762   1.358       .  S
C757        F764   1.358       .  S
C758        C759   1.399       .  A
C758        F763   1.358   1_556  S
C759        C760   1.412       .  A
C760        F761   1.358       .  S
C765        C766   1.404       .  A
C765        C770   1.399       .  A
C765        F772   1.358       .  S
C766        C767   1.402       .  A
C767        C768   1.399       .  A
C767        F774   1.358       .  S
C768        C769   1.414       .  A
C768        F773   1.358       .  S
C769        C770   1.413       .  A
C770        F771   1.358       .  S
C775        C776   1.406       .  A
C775        C780   1.398       .  A
C775        F782   1.358       .  S
C776        C777   1.415       .  A
C777        C778   1.409       .  A
C777        F784   1.357       .  S
C778        C779   1.409       .  A
C778        F783   1.357       .  S
C779        C780   1.418       .  A
C780        F781   1.359       .  S
C785        C786   1.407       .  A
C785        C790   1.401       .  A
C785        F792   1.358       .  S
C786        C787   1.413       .  A
C787        C788   1.396       .  A
C787        F794   1.358       .  S
C788        C789   1.401       .  A
C788        F793   1.358       .  S
C789        C790   1.409       .  A
C790        F791   1.358       .  S
C795        C796   1.409       .  A
C796        C797   1.411   1_556  A
C797        C798   1.403       .  A
C797        F804   1.358       .  S
C798        F803   1.358       .  S
C799        C800   1.406       .  A
C800        F801   1.358       .  S
C805        C806   1.413       .  A
C805        C810   1.410       .  A
C805        F812   1.358       .  S
C806        C807   1.402       .  A
C807        C808   1.399       .  A
C807        F814   1.358       .  S
C808        C809   1.418       .  A
C808        F813   1.358       .  S
C809        C810   1.411       .  A
C810        F811   1.357       .  S
C815        C816   1.409       .  A
C815        C820   1.400       .  A
C815        F822   1.358       .  S
C816        C817   1.398       .  A
C817        C818   1.394   1_556  A
C817        F824   1.358   1_556  S
C818        C819   1.418       .  A
C819        C820   1.408   1_554  A
C820        F821   1.358       .  S
C825        C826   1.401       .  A
C825        C830   1.403       .  A
C825        F832   1.358       .  S
C826        C827   1.408       .  A
C827        C828   1.403       .  A
C827        F834   1.358       .  S
C828        C829   1.411       .  A
C828        F833   1.358       .  S
C829        C830   1.418       .  A
C830        F831   1.357       .  S
C835        C836   1.410       .  A
C835        C840   1.410       .  A
C835        F842   1.357       .  S
C836        C837   1.414       .  A
C837        C838   1.398       .  A
C837        F844   1.358       .  S
C838        C839   1.410       .  A
C838        F843   1.358       .  S
C839        C840   1.416       .  A
C840        F841   1.357       .  S
C845        C846   1.407       .  A
C845        C850   1.402       .  A
C845        F852   1.357       .  S
C846        C847   1.417       .  A
C847        C848   1.396       .  A
C847        F854   1.359       .  S
C848        C849   1.400       .  A
C848        F853   1.359       .  S
C849        C850   1.410       .  A
C850        F851   1.358       .  S
C855        C856   1.408       .  A
C855        F862   1.358       .  S
C856        C857   1.412   1_556  A
C857        C858   1.402       .  A
C857        F864   1.358       .  S
C858        F863   1.358       .  S
C859        C860   1.401       .  A
C860        F861   1.358       .  S
C865        C866   1.403       .  A
C865        C870   1.394       .  A
C865        F872   1.359       .  S
C866        C867   1.410       .  A
C867        C868   1.407       .  A
C867        F874   1.357       .  S
C868        C869   1.410       .  A
C868        F873   1.357       .  S
C869        C870   1.417       .  A
C870        F871   1.358       .  S
C875        C876   1.409       .  A
C875        C880   1.399       .  A
C875        F882   1.358       .  S
C876        C877   1.399       .  A
C877        C878   1.396   1_556  A
C877        F884   1.358   1_556  S
C878        C879   1.415       .  A
C878        F883   1.358       .  S
C879        C880   1.408   1_554  A
C880        F881   1.358       .  S
C885        C886   1.413       .  A
C885        C890   1.397       .  A
C885        F892   1.358       .  S
C886        C887   1.412       .  A
C887        C888   1.398       .  A
C887        F894   1.358       .  S
C888        C889   1.402       .  A
C888        F893   1.358       .  S
C889        C890   1.402       .  A
C890        F891   1.358       .  S
C895        C896   1.417       .  A
C895        C900   1.411       .  A
C895        F902   1.357       .  S
C896        C897   1.407       .  A
C897        C898   1.400       .  A
C897        F904   1.358       .  S
C898        C899   1.417       .  A
C898        F903   1.358       .  S
C899        C900   1.410       .  A
C900        F901   1.357       .  S
C905        C906   1.409       .  A
C905        C910   1.400       .  A
C905        F912   1.358       .  S
C906        C907   1.401       .  A
C907        C908   1.395       .  A
C907        F914   1.358       .  S
C908        C909   1.415       .  A
C908        F913   1.358       .  S
C909        C910   1.407       .  A
C910        F911   1.358       .  S
C915        C916   1.407       .  A
C915        C920   1.403       .  A
C915        F922   1.358       .  S
C916        C917   1.402       .  A
C918        C919   1.415       .  A
C918        F923   1.358       .  S
C920        F921   1.358       .  S
