geometry optimzed in LAMMPS
_audit_creation_date              2020-11-30 
_audit_creation_method            'lammps2cif' 
_symmetry_space_group_name_H-M    'P1' 
_symmetry_Int_Tables_number       1 
_symmetry_cell_setting            triclinic 
loop_ 
_symmetry_equiv_pos_as_xyz 
  x,y,z 
_cell_length_a                    41.11625837 
_cell_length_b                    40.77942965211109 
_cell_length_c                    28.128487174898353 
_cell_angle_alpha                 89.37204309072877 
_cell_angle_beta                  90.28948516038027 
_cell_angle_gamma                 121.41578196044519 
loop_ 
_atom_site_label 
_atom_site_type_symbol 
_atom_site_fract_x 
_atom_site_fract_y 
_atom_site_fract_z 
_atom_site_charge 
C1          C  0.49397628  0.29345096  0.10662997     0.81300
N2          N  0.48402318  0.27324148  0.06519970    -0.77000
C3          C  0.48434391  0.24021109  0.06264671     0.83800
N4          N  0.49588394  0.22834908  0.10036537    -0.76900
C5          C  0.50640375  0.24806811  0.14114089     0.83900
N6          N  0.50477702  0.28034344  0.14481168    -0.78600
C7          C  0.29296495  0.87388583  0.38614589     0.81300
N8          N  0.27768726  0.85087693  0.34764119    -0.77000
C9          C  0.24309553  0.81817535  0.35140313     0.83800
N10         N  0.22461798  0.80814118  0.39338511    -0.76900
C11         C  0.23974582  0.83041777  0.43198242     0.83900
N12         N  0.27431890  0.86337077  0.42860298    -0.78600
C13         C  0.84410494  0.21339529  0.13281645     0.81300
N14         N  0.86927050  0.22694983  0.09586949    -0.77000
C15         C  0.90444451  0.25899557  0.10120101     0.83800
N16         N  0.91335624  0.27733278  0.14326582    -0.76900
C17         C  0.88875610  0.26425629  0.17999002     0.83900
N18         N  0.85374324  0.23238510  0.17487513    -0.78600
C19         C  0.66979210  0.82833038  0.38405152     0.81300
N20         N  0.66075393  0.84231964  0.34530295    -0.77000
C21         C  0.65977474  0.87487193  0.34840339     0.83800
N22         N  0.66641054  0.89279639  0.39030611    -0.76900
C23         C  0.67451318  0.87899374  0.42934018     0.83900
N24         N  0.67587916  0.84651124  0.42648124    -0.78600
C25         C  0.88964853  0.64311976  0.10741160     0.81300
N26         N  0.88264634  0.65252637  0.06346601    -0.77000
C27         C  0.85224375  0.65674791  0.05711689     0.83800
N28         N  0.82862103  0.65020439  0.09386075    -0.76900
C29         C  0.83469090  0.63985025  0.13702006     0.83900
N30         N  0.86546899  0.63645705  0.14416728    -0.78600
C31         C  0.24829146  0.46283203  0.35627098     0.81300
N32         N  0.27251404  0.46979692  0.39330950    -0.77000
C33         C  0.30437371  0.46826601  0.38660614     0.83800
N34         N  0.31139446  0.45928011  0.34348898    -0.76900
C35         C  0.28812109  0.45297143  0.30636929     0.83900
N36         N  0.25671151  0.45535363  0.31235895    -0.78600
Zn37       Zn  0.03977836  0.45742302  0.33359849     1.49700
Zn38       Zn  0.05005206  0.46281182  0.44539174     1.49400
Zn39       Zn  0.02365353  0.51609895  0.39135814     1.49100
Zn40       Zn  0.96944264  0.42643767  0.39885526     1.49500
O41         O  0.02175829  0.46732807  0.39222042    -1.83000
O42         O  0.08820261  0.45817417  0.34545283    -0.73600
O43         O  0.05944679  0.50228263  0.49623069    -0.73400
O44         O  0.04757206  0.54308053  0.32477251    -0.73000
O45         O  0.10017312  0.47072777  0.42246771    -0.73600
O46         O  0.05164330  0.49846917  0.28438442    -0.73200
O47         O  0.05050152  0.54439867  0.45550286    -0.73800
O48         O  0.93562956  0.44443336  0.41852753    -0.73200
O49         O  0.02159621  0.40815278  0.47212496    -0.74000
O50         O  0.96840117  0.50559228  0.39485036    -0.73400
O51         O  0.96405517  0.38614855  0.44295180    -0.73800
O52         O  0.94781222  0.39714034  0.33936977    -0.73700
O53         O  0.00070700  0.40586455  0.30643828    -0.73500
C54         C  0.10945083  0.46495092  0.38162369     0.78300
C55         C  0.06001128  0.53390800  0.49399798     0.78700
C56         C  0.05489170  0.53123099  0.28615559     0.77700
C57         C  0.93749226  0.47587526  0.40939648     0.78100
C58         C  0.98702806  0.38102818  0.46738172     0.79200
C59         C  0.96453075  0.38742703  0.31002917     0.78300
Zn60       Zn  0.08670414  0.63035439  0.07970370     1.49700
Zn61       Zn  0.15568090  0.65873625  0.14610913     1.49400
Zn62       Zn  0.08196196  0.62890426  0.19284763     1.49100
Zn63       Zn  0.10420366  0.57176742  0.13909430     1.49500
O64         O  0.10436713  0.61940785  0.13815364    -1.83000
O65         O  0.12474754  0.68519565  0.05637349    -0.73600
O66         O  0.16908960  0.67204952  0.21263558    -0.73400
O67         O  0.03587762  0.63091799  0.17229263    -0.73000
O68         O  0.16724657  0.70658008  0.11466021    -0.73600
O69         O  0.03767069  0.62848877  0.09316956    -0.73200
O70         O  0.12048962  0.67992207  0.22257459    -0.73800
O71         O  0.07865970  0.54526279  0.20526259    -0.73200
O72         O  0.19108017  0.64559604  0.12099756    -0.74000
O73         O  0.06773313  0.58701667  0.24225645    -0.73400
O74         O  0.16026461  0.58290678  0.13567003    -0.73800
O75         O  0.07866821  0.54431224  0.07427249    -0.73700
O76         O  0.07637634  0.58944133  0.03075800    -0.73500
C77         C  0.15436419  0.71232812  0.07663160     0.78300
C78         C  0.15490060  0.68994606  0.23104910     0.78700
C79         C  0.02204626  0.63016833  0.13134775     0.77700
C80         C  0.06770168  0.55571105  0.24213289     0.78100
C81         C  0.19064824  0.61444146  0.12398981     0.79200
C82         C  0.07241968  0.55626126  0.03452383     0.78300
Zn83       Zn  0.55552646  0.12345518  0.43365945     1.49700
Zn84       Zn  0.57423442  0.12890006  0.32348945     1.49400
Zn85       Zn  0.52995235  0.04778953  0.37584876     1.49100
Zn86       Zn  0.48996471  0.09626696  0.35553294     1.49500
O87         O  0.53745471  0.09881998  0.37275391    -1.83000
O88         O  0.60729712  0.17108041  0.42464564    -0.73600
O89         O  0.57630271  0.09379950  0.27405624    -0.73400
O90         O  0.55270501  0.04096292  0.43955091    -0.73000
O91         O  0.62488135  0.17093473  0.35055107    -0.73600
O92         O  0.55605636  0.08736241  0.48458265    -0.73200
O93         O  0.54721045  0.03666072  0.31070675    -0.73800
O94         O  0.44642661  0.04183586  0.35582390    -0.73200
O95         O  0.55657957  0.15913682  0.28813766    -0.74000
O96         O  0.47331892  0.00987130  0.38122060    -0.73400
O97         O  0.49367410  0.12398554  0.29437796    -0.73800
O98         O  0.47771055  0.12537676  0.40177502    -0.73700
O99         O  0.52417268  0.14491571  0.45507062    -0.73500
C100        C  0.63133178  0.18715305  0.39098125     0.78300
C101        C  0.56342470  0.05776750  0.27376445     0.78700
C102        C  0.55729938  0.05690325  0.48029379     0.77700
C103        C  0.44367372  0.01083857  0.37048502     0.78100
C104        C  0.52378168  0.15251898  0.27694900     0.79200
C105        C  0.49509878  0.14437742  0.43846789     0.78300
Zn106      Zn  0.54558362  0.00446277  0.12798053     1.49700
Zn107      Zn  0.62150996  0.02075826  0.06899686     1.49400
Zn108      Zn  0.62388423  0.02292898  0.18130894     1.49100
Zn109      Zn  0.57551531  0.94825931  0.13341297     1.49500
O110        O  0.59109644  0.00097899  0.12688461    -1.83000
O111        O  0.54694420  0.03229067  0.06293136    -0.73600
O112        O  0.67211499  0.06971028  0.08292743    -0.73400
O113        O  0.59914737  0.03805121  0.23061731    -0.73000
O114        O  0.59174014  0.03091403  0.01934343    -0.73600
O115        O  0.54778318  0.03166617  0.19382716    -0.73200
O116        O  0.67362283  0.06872482  0.16195837    -0.73800
O117        O  0.57953179  0.93286377  0.19846194    -0.73200
O118        O  0.63610767  0.98351728  0.04427802    -0.74000
O119        O  0.63554945  0.98518650  0.21098387    -0.73400
O120        O  0.60823295  0.93612562  0.09697202    -0.73800
O121        O  0.52327079  0.91385906  0.11316533    -0.73700
O122        O  0.49654647  0.94842015  0.12558568    -0.73500
C123        C  0.56448772  0.03714065  0.02307176     0.78300
C124        C  0.68930962  0.08356603  0.12219760     0.72900
C125        C  0.56990423  0.04111992  0.23050033     0.77700
C126        C  0.61187846  0.94965474  0.21827634     0.78100
C127        C  0.62971823  0.95159322  0.06132984     0.79200
C128        C  0.49398313  0.91638259  0.11630490     0.78300
C129        C  0.71515752  0.40647503  0.40101674     0.04300
C130        C  0.75490381  0.43157361  0.40455411    -0.11900
C131        C  0.77897930  0.41685131  0.40900481     0.01800
C132        C  0.76312622  0.37686654  0.40959933    -0.10400
C133        C  0.72360317  0.35171112  0.40580730     0.04200
C134        C  0.69970064  0.36663875  0.40187657    -0.09800
H135        H  0.76697149  0.46221346  0.40322300     0.09800
H136        H  0.78158344  0.36534269  0.41231240     0.07400
H137        H  0.66921474  0.34729581  0.39821197     0.07200
C138        C  0.41615609  0.70396914  0.11403964     0.04300
C139        C  0.37684780  0.67678414  0.11452532    -0.11900
C140        C  0.35033502  0.68857976  0.11441693     0.01800
C141        C  0.36339522  0.72813572  0.11406927    -0.10400
C142        C  0.40261031  0.75571188  0.11338404     0.04200
C143        C  0.42889634  0.74338929  0.11331548    -0.09800
H144        H  0.36688052  0.64635811  0.11440825     0.09800
H145        H  0.34311351  0.73738504  0.11371991     0.07400
H146        H  0.45930484  0.76450944  0.11253862     0.07200
Zn147      Zn  0.49871925  0.55992116  0.06151817     1.49700
Zn148      Zn  0.53921278  0.52334012  0.11846281     1.49400
Zn149      Zn  0.48723027  0.55089510  0.17193886     1.49100
Zn150      Zn  0.44935145  0.47653977  0.10551550     1.49500
O151        O  0.49435540  0.52788832  0.11540885    -1.83000
O152        O  0.53768390  0.56417281  0.01403894    -0.73600
O153        O  0.56368726  0.54244586  0.18510295    -0.73400
O154        O  0.48798046  0.60011719  0.15460114    -0.73000
O155        O  0.57175751  0.54589567  0.05606044    -0.73600
O156        O  0.50491454  0.61093482  0.07895128    -0.73200
O157        O  0.52544000  0.55692521  0.22400017    -0.73800
O158        O  0.40790058  0.46521308  0.15077957    -0.73200
O159        O  0.52338165  0.46713181  0.11751626    -0.74000
O160        O  0.43330158  0.51734452  0.19558490    -0.73400
O161        O  0.46057088  0.43465674  0.11079488    -0.73800
O162        O  0.42371671  0.47258593  0.04377949    -0.73700
O163        O  0.44894675  0.53458808  0.02869944    -0.73500
C164        C  0.56484059  0.55773526  0.01691855     0.78300
C165        C  0.55390802  0.55222686  0.22332268     0.78700
C166        C  0.49414023  0.61983328  0.11649531     0.77700
C167        C  0.40504505  0.48504767  0.18297577     0.78100
C168        C  0.49171634  0.43535249  0.11455328     0.79200
C169        C  0.42304093  0.49979370  0.02237237     0.78300
Zn170      Zn  0.60236150  0.59206793  0.36864555     1.49700
Zn171      Zn  0.69221670  0.63521170  0.35116589     1.49400
Zn172      Zn  0.65301259  0.56515791  0.42520602     1.49100
Zn173      Zn  0.64008645  0.55182979  0.31455265     1.49500
O174        O  0.64619565  0.58586065  0.36581775    -1.83000
O175        O  0.62134528  0.64883119  0.37050825    -0.73600
O176        O  0.73398746  0.64634208  0.39621722    -0.73400
O177        O  0.61553984  0.56053897  0.47596228    -0.73000
O178        O  0.68334494  0.67828214  0.35448953    -0.73600
O179        O  0.57581494  0.57183056  0.43441481    -0.73200
O180        O  0.70683275  0.59818616  0.44842128    -0.73800
O181        O  0.63140016  0.50083305  0.33798523    -0.73200
O182        O  0.71574799  0.63647406  0.28911878    -0.74000
O183        O  0.64977814  0.51488875  0.41319942    -0.73400
O184        O  0.68913287  0.57389323  0.27898330    -0.73800
O185        O  0.60129891  0.54823639  0.26698063    -0.73700
O186        O  0.57077478  0.57196831  0.30526011    -0.73500
C187        C  0.65373300  0.67926282  0.36392549     0.78300
C188        C  0.73593384  0.62852128  0.43223907     0.78700
C189        C  0.58614802  0.56351262  0.47374137     0.77700
C190        C  0.64210414  0.49339224  0.37716114     0.78100
C191        C  0.71519102  0.60827149  0.26963929     0.79200
C192        C  0.57626054  0.55774343  0.26770798     0.78300
C193        C  0.44350957  0.69026832  0.11355367    -0.04200
C194        C  0.45210669  0.67904129  0.07055375    -0.01300
C195        C  0.47220935  0.65948256  0.07070256     0.03700
C196        C  0.48365628  0.65037551  0.11444889    -0.04200
C197        C  0.47844743  0.66567375  0.15697771    -0.01300
C198        C  0.45812940  0.68502371  0.15645984     0.03700
C199        C  0.43877166  0.68634607  0.02607423     0.38300
C200        C  0.49351695  0.66130145  0.20173070     0.38300
C201        C  0.45072761  0.69817457  0.20051050     0.36700
C202        C  0.47909812  0.64740251  0.02545919     0.36700
N203        N  0.44466489  0.70869010  0.23552371    -0.38100
N204        N  0.48450506  0.63804535  0.98910972    -0.38100
N205        N  0.50550299  0.65789024  0.23752797    -0.37500
N206        N  0.42807466  0.69219114  0.99070625    -0.37500
C207        C  0.69014305  0.42229876  0.39257010    -0.04200
C208        C  0.66693554  0.42263465  0.42913482    -0.01300
C209        C  0.64742441  0.44244661  0.42243027     0.03700
C210        C  0.65155212  0.46261415  0.37935690    -0.04200
C211        C  0.67191487  0.45887486  0.34125616    -0.01300
C212        C  0.69062709  0.43841307  0.34784883     0.03700
C213        C  0.66412569  0.40364035  0.47414169     0.38300
C214        C  0.67637271  0.47830146  0.29604454     0.38300
C215        C  0.71077681  0.43416236  0.30847700     0.36700
C216        C  0.62336981  0.44235676  0.46004062     0.36700
N217        N  0.72637276  0.43047573  0.27677395    -0.38100
N218        N  0.60401400  0.44211653  0.48995059    -0.38100
N219        N  0.68023385  0.49368796  0.25984938    -0.37500
N220        N  0.66179458  0.38837620  0.51000745    -0.37500
C221        C  0.45720195  0.87928254  0.11165890    -0.04200
C222        C  0.44983212  0.85913043  0.06852328    -0.01300
C223        C  0.42953316  0.81849503  0.06853918     0.03700
C224        C  0.41647860  0.79771718  0.11175654    -0.04200
C225        C  0.41913913  0.81769318  0.15377071    -0.01300
C226        C  0.43908029  0.85839609  0.15354730     0.03700
C227        C  0.46554967  0.88048910  0.02456076     0.38300
C228        C  0.40355961  0.79649823  0.19782239     0.38300
C229        C  0.44377085  0.87894709  0.19724720     0.36700
C230        C  0.42340433  0.79803612  0.02439048     0.36700
N231        N  0.44737108  0.89544726  0.23200372    -0.38100
N232        N  0.41831850  0.78160766  0.98919045    -0.38100
N233        N  0.39114314  0.77955315  0.23299331    -0.37500
N234        N  0.47799964  0.89758532  0.98948454    -0.37500
C235        C  0.70691084  0.30942017  0.40416198    -0.04200
C236        C  0.70601226  0.29164206  0.36110047    -0.01300
C237        C  0.68538247  0.25109133  0.35781856     0.03700
C238        C  0.66444269  0.22782998  0.39762606    -0.04200
C239        C  0.67034258  0.24619181  0.44238993    -0.01300
C240        C  0.69055782  0.28669675  0.44520096     0.03700
C241        C  0.72487147  0.31528670  0.31945744     0.38300
C242        C  0.65559447  0.22385549  0.48596312     0.38300
C243        C  0.69349809  0.30517267  0.49018124     0.36700
C244        C  0.68559910  0.23395223  0.31299553     0.36700
N245        N  0.69577027  0.32000031  0.52593623    -0.38100
N246        N  0.68615404  0.22055665  0.27716494    -0.38100
N247        N  0.64396573  0.20620741  0.52084682    -0.37500
N248        N  0.73989210  0.33428888  0.28636350    -0.37500
C249        C  0.30856593  0.65976066  0.11261558    -0.04200
C250        C  0.28903981  0.63656405  0.15265862    -0.01300
C251        C  0.24867071  0.61561857  0.15395308     0.03700
C252        C  0.22788141  0.61785317  0.11523392    -0.04200
C253        C  0.24746743  0.63647228  0.07283120    -0.01300
C254        C  0.28763442  0.65746379  0.07158103     0.03700
C255        C  0.31041752  0.63619265  0.19359492     0.38300
C256        C  0.22613857  0.63639579  0.03151721     0.38300
C257        C  0.30754213  0.67794047  0.02858323     0.36700
C258        C  0.22869037  0.59456547  0.19657644     0.36700
N259        N  0.32356620  0.69428564  0.99436582    -0.38100
N260        N  0.21273984  0.57766127  0.23055880    -0.38100
N261        N  0.20911529  0.63640042  0.99862766    -0.37500
N262        N  0.32753392  0.63578026  0.22614871    -0.37500
C263        C  0.90108013  0.47510049  0.41251161    -0.04200
C264        C  0.88262750  0.47526690  0.37012142    -0.01300
C265        C  0.84273214  0.45910428  0.36964240     0.03700
C266        C  0.82118707  0.44277713  0.41155348    -0.04200
C267        C  0.84029076  0.44704058  0.45497198    -0.01300
C268        C  0.88012674  0.46305787  0.45543677     0.03700
C269        C  0.90405578  0.48847785  0.32604453     0.38300
C270        C  0.81864757  0.43347274  0.49884007     0.38300
C271        C  0.89939271  0.46527616  0.49970777     0.36700
C272        C  0.82366459  0.45688471  0.32527981     0.36700
N273        N  0.91479073  0.46709809  0.53502631    -0.38100
N274        N  0.80891420  0.45540102  0.28955929    -0.38100
N275        N  0.80131179  0.42276943  0.53380846    -0.37500
N276        N  0.92116884  0.49891048  0.29089349    -0.37500
C277        C  0.21293975  0.46356390  0.36348453    -0.04200
C278        C  0.21389235  0.49430245  0.38768799    -0.01300
C279        C  0.18004217  0.49462556  0.39432992     0.03700
C280        C  0.14517414  0.46467693  0.37590040    -0.04200
C281        C  0.14432447  0.43401815  0.35168303    -0.01300
C282        C  0.17789609  0.43323044  0.34603643     0.03700
C283        C  0.24986425  0.52640363  0.40425567     0.38300
C284        C  0.10866208  0.40245769  0.33353203     0.38300
C285        C  0.17591638  0.40024527  0.32380966     0.36700
C286        C  0.18141958  0.52649983  0.41872402     0.36700
N287        N  0.17426018  0.37388843  0.30622363    -0.38100
N288        N  0.18253174  0.55189555  0.43825905    -0.38100
N289        N  0.08042481  0.37729881  0.31866825    -0.37500
N290        N  0.27854270  0.55205721  0.41740188    -0.37500
C291        C  0.39091074  0.49129492  0.99053717    -0.04200
C292        C  0.40118003  0.50913124  0.44365238    -0.01300
C293        C  0.37247861  0.50377526  0.41176980     0.03700
C294        C  0.33359185  0.47896803  0.42389450    -0.04200
C295        C  0.32369771  0.46138881  0.46924130    -0.01300
C296        C  0.35310443  0.46227529  0.00286572     0.03700
C297        C  0.44089937  0.53275020  0.42937865     0.38300
C298        C  0.28442829  0.42273313  0.98270346     0.38300
C299        C  0.34505308  0.44098763  0.04731463     0.36700
C300        C  0.38322984  0.52427712  0.36645302     0.36700
N301        N  0.33831519  0.42391423  0.08271628    -0.38100
N302        N  0.39185347  0.54049863  0.33033054    -0.38100
N303        N  0.25386293  0.39759529  0.99099324    -0.37500
N304        N  0.47252154  0.55151370  0.41801136    -0.37500
C305        C  0.30268060  0.45131181  0.25944350    -0.04200
C306        C  0.31915011  0.48481554  0.23097269    -0.01300
C307        C  0.35190990  0.49507782  0.20399861     0.03700
C308        C  0.36739059  0.47119425  0.20466400    -0.04200
C309        C  0.34676973  0.43449508  0.22625288    -0.01300
C310        C  0.31424798  0.42454495  0.25358043     0.03700
C311        C  0.30478514  0.51057735  0.23327369     0.38300
C312        C  0.36062600  0.40833181  0.22368114     0.38300
C313        C  0.29466910  0.38831224  0.27949246     0.36700
C314        C  0.37028109  0.53069867  0.17667869     0.36700
N315        N  0.27901534  0.35942807  0.30019852    -0.38100
N316        N  0.38491594  0.55907990  0.15487442    -0.38100
N317        N  0.37168637  0.38746135  0.22158710    -0.37500
N318        N  0.29323016  0.53104839  0.23502820    -0.37500
C319        C  0.92291849  0.63909354  0.11502258    -0.04200
C320        C  0.92166119  0.60536383  0.10090528    -0.01300
C321        C  0.95395992  0.60214644  0.10687697     0.03700
C322        C  0.98737472  0.63241749  0.12766384    -0.04200
C323        C  0.98816389  0.66567852  0.14310177    -0.01300
C324        C  0.95599088  0.66902083  0.13666126     0.03700
C325        C  0.88685160  0.57360546  0.08133126     0.38300
C326        C  0.02254553  0.69708432  0.16402241     0.38300
C327        C  0.95710595  0.70358028  0.15141611     0.36700
C328        C  0.95258081  0.56736230  0.09259933     0.36700
N329        N  0.95794325  0.73114149  0.16305757    -0.38100
N330        N  0.95151101  0.53960504  0.08134340    -0.38100
N331        N  0.04996200  0.72216870  0.18066498    -0.37500
N332        N  0.85905118  0.54802038  0.06613919    -0.37500
C333        C  0.80524031  0.62898248  0.17366344    -0.04200
C334        C  0.76700359  0.60084580  0.16295452    -0.01300
C335        C  0.73753006  0.59416549  0.19416255     0.03700
C336        C  0.74611374  0.61545507  0.23649948    -0.04200
C337        C  0.78459118  0.64277703  0.24787029    -0.01300
C338        C  0.81402432  0.64964486  0.21629322     0.03700
C339        C  0.75783330  0.57901684  0.11927575     0.38300
C340        C  0.79425414  0.66352363  0.29236855     0.38300
C341        C  0.85311146  0.67929760  0.22656902     0.36700
C342        C  0.69826995  0.56641081  0.18153562     0.36700
N343        N  0.88423121  0.70308588  0.23474760    -0.38100
N344        N  0.66700950  0.54424441  0.17147218    -0.38100
N345        N  0.80226133  0.68023500  0.32772501    -0.37500
N346        N  0.75054369  0.56183691  0.08433560    -0.37500
C347        C  0.83923570  0.66146175  0.01012459    -0.04200
C348        C  0.82660599  0.68766348  0.00650025    -0.01300
C349        C  0.79448993  0.67855219  0.97865258     0.03700
C350        C  0.77339107  0.64221940  0.45449802    -0.04200
C351        C  0.78685638  0.61678918  0.45956730    -0.01300
C352        C  0.82466903  0.63033475  0.97858854     0.03700
C353        C  0.84435377  0.72194983  0.03542357     0.38300
C354        C  0.76594061  0.57878613  0.43871681     0.38300
C355        C  0.83213790  0.60058171  0.49450835     0.36700
C356        C  0.77930575  0.70365929  0.97811988     0.36700
N357        N  0.84188349  0.57892874  0.50113700    -0.38100
N358        N  0.76711340  0.72362419  0.97762920    -0.38100
N359        N  0.74919848  0.54845408  0.42225246    -0.37500
N360        N  0.85845972  0.74922705  0.05862805    -0.37500
C361        C  0.66867210  0.79116899  0.38044746    -0.04200
C362        C  0.65662730  0.76486031  0.41943942    -0.01300
C363        C  0.65048554  0.72780096  0.41326486     0.03700
C364        C  0.65775640  0.71711396  0.36900538    -0.04200
C365        C  0.67202703  0.74372985  0.33103342    -0.01300
C366        C  0.67749466  0.78055342  0.33655853     0.03700
C367        C  0.65102856  0.77532234  0.46648738     0.38300
C368        C  0.68060166  0.73295601  0.28584609     0.38300
C369        C  0.69358664  0.80770971  0.29715138     0.36700
C370        C  0.63774891  0.70087986  0.45308656     0.36700
N371        N  0.70636061  0.82909607  0.26549317    -0.38100
N372        N  0.62761634  0.67941010  0.48474819    -0.38100
N373        N  0.68749854  0.72437766  0.24989374    -0.37500
N374        N  0.64716512  0.78316522  0.50461154    -0.37500
C375        C  0.64609906  0.93081572  0.03843135    -0.04200
C376        C  0.68308396  0.95209213  0.51431760    -0.01300
C377        C  0.69530231  0.93253706  0.48545464     0.03700
C378        C  0.67010037  0.89346878  0.47480298    -0.04200
C379        C  0.63394105  0.87298560  0.49669644    -0.01300
C380        C  0.62152325  0.89245491  0.52513866     0.03700
C381        C  0.70908805  0.99136815  0.03102025     0.38300
C382        C  0.60741350  0.83298902  0.48499437     0.38300
C383        C  0.58545441  0.86830962  0.05339383     0.36700
C384        C  0.73281179  0.95314446  0.46373995     0.36700
N385        N  0.55526421  0.85058067  0.06983027    -0.38100
N386        N  0.76269268  0.96954444  0.44631123    -0.38100
N387        N  0.58583080  0.80126255  0.47559012    -0.37500
N388        N  0.72938586  0.02350345  0.03981165    -0.37500
C389        C  0.62256328  0.92717173  0.24863452    -0.04200
C390        C  0.59729535  0.90233368  0.28408643    -0.01300
C391        C  0.60850300  0.88235239  0.31428095     0.03700
C392        C  0.64514896  0.88774426  0.30962209    -0.04200
C393        C  0.66960660  0.91090628  0.27280319    -0.01300
C394        C  0.65789238  0.92982357  0.24141350     0.03700
C395        C  0.56050230  0.89857060  0.29096822     0.38300
C396        C  0.70754344  0.91698269  0.26895579     0.38300
C397        C  0.68161764  0.95091201  0.20085858     0.36700
C398        C  0.58288316  0.85733324  0.35143653     0.36700
N399        N  0.70025874  0.96720897  0.16812530    -0.38100
N400        N  0.56241113  0.83742498  0.38100503    -0.38100
N401        N  0.73794349  0.92213879  0.26620040    -0.37500
N402        N  0.53117578  0.89556846  0.29640072    -0.37500
C403        C  0.80540459  0.17940415  0.12683224    -0.04200
C404        C  0.77870601  0.18126155  0.09691687    -0.01300
C405        C  0.74079025  0.14979147  0.09450197     0.03700
C406        C  0.72939499  0.11644522  0.12237031    -0.04200
C407        C  0.75662515  0.11444954  0.15138821    -0.01300
C408        C  0.79442073  0.14577637  0.15347960     0.03700
C409        C  0.78985735  0.21623001  0.07024766     0.38300
C410        C  0.74608772  0.07990904  0.17877846     0.38300
C411        C  0.82227813  0.14322715  0.18265331     0.36700
C412        C  0.71321048  0.15255596  0.06510045     0.36700
N413        N  0.84449765  0.14111519  0.20576344    -0.38100
N414        N  0.69126384  0.15487556  0.04165526    -0.38100
N415        N  0.73775227  0.05253423  0.20090148    -0.37500
N416        N  0.79882922  0.24420809  0.04912382    -0.37500
C417        C  0.94122427  0.35301043  0.28081327    -0.04200
C418        C  0.94797396  0.32239908  0.28264568    -0.01300
C419        C  0.92724668  0.29044100  0.25301609     0.03700
C420        C  0.89953707  0.28882764  0.22192728    -0.04200
C421        C  0.89054945  0.31779164  0.22287726    -0.01300
C422        C  0.91140736  0.34994425  0.25227922     0.03700
C423        C  0.97563281  0.32333955  0.31571753     0.38300
C424        C  0.86160561  0.31569292  0.19109940     0.38300
C425        C  0.90373787  0.38088170  0.25089036     0.36700
C426        C  0.93528709  0.25976036  0.25311386     0.36700
N427        N  0.89767098  0.40558768  0.24968840    -0.38100
N428        N  0.94161513  0.23523401  0.25318767    -0.38100
N429        N  0.83854132  0.31390328  0.16564489    -0.37500
N430        N  0.99719945  0.32371357  0.34262382    -0.37500
C431        C  0.93089185  0.27922202  0.06048267    -0.04200
C432        C  0.96945114  0.30752213  0.07008999    -0.01300
C433        C  0.98962595  0.33933132  0.03918993     0.03700
C434        C  0.97195245  0.34274412  0.49111264    -0.04200
C435        C  0.93735783  0.31020192  0.47503390    -0.01300
C436        C  0.91677884  0.27752762  0.01415866     0.03700
C437        C  0.98789812  0.30481870  0.11288728     0.38300
C438        C  0.92242380  0.30959804  0.42795383     0.38300
C439        C  0.88037928  0.24582549  0.48950294     0.36700
C440        C  0.02779318  0.36972753  0.05197342     0.36700
N441        N  0.85193898  0.21991789  0.47620838    -0.38100
N442        N  0.05831149  0.39375845  0.06229813    -0.38100
N443        N  0.90989629  0.30862501  0.39070269    -0.37500
N444        N  0.00256244  0.30276303  0.14706427    -0.37500
C445        C  0.33128142  0.90853557  0.38292254    -0.04200
C446        C  0.36341829  0.90503568  0.37839802    -0.01300
C447        C  0.40010017  0.93815034  0.37414051     0.03700
C448        C  0.40497879  0.97533469  0.37565791    -0.04200
C449        C  0.37230557  0.97830889  0.38250453    -0.01300
C450        C  0.33568225  0.94502914  0.38481932     0.03700
C451        C  0.35871474  0.86716401  0.37898350     0.38300
C452        C  0.37584436  0.01530475  0.38910516     0.38300
C453        C  0.30221040  0.94826189  0.38801483     0.36700
C454        C  0.43236010  0.93328428  0.36774622     0.36700
N455        N  0.27545091  0.95070875  0.39013602    -0.38100
N456        N  0.45791519  0.92910597  0.36290731    -0.38100
N457        N  0.37840667  0.04465879  0.39454083    -0.37500
N458        N  0.35499251  0.83700781  0.37971225    -0.37500
C459        C  0.22192788  0.81284670  0.47802645    -0.04200
C460        C  0.18220690  0.79611762  0.48264867    -0.01300
C461        C  0.16122892  0.76467799  0.51373786     0.03700
C462        C  0.17612474  0.75108623  0.05459212    -0.04200
C463        C  0.21626908  0.76966457  0.05001690    -0.01300
C464        C  0.24135988  0.80160621  0.50924154     0.03700
C465        C  0.16274348  0.80999634  0.45306896     0.38300
C466        C  0.23667921  0.75243242  0.06992521     0.38300
C467        C  0.28253577  0.82007916  0.50635077     0.36700
C468        C  0.12015499  0.74670277  0.51624205     0.36700
N469        N  0.30940809  0.83395779  0.00848089    -0.38100
N470        N  0.08736797  0.73238548  0.51750889    -0.38100
N471        N  0.25304487  0.73874426  0.08552321    -0.37500
N472        N  0.14728558  0.82110758  0.42946580    -0.37500
C473        C  0.22778005  0.78937596  0.31387331    -0.04200
C474        C  0.20615651  0.79199099  0.27681997    -0.01300
C475        C  0.18250004  0.75945092  0.24918202     0.03700
C476        C  0.17980689  0.72408700  0.25970922    -0.04200
C477        C  0.20361458  0.72241101  0.29478436    -0.01300
C478        C  0.22789940  0.75520229  0.32140721     0.03700
C479        C  0.20742978  0.82777670  0.26823825     0.38300
C480        C  0.20210315  0.68664056  0.30493555     0.38300
C481        C  0.25229433  0.75358323  0.35772540     0.36700
C482        C  0.16192655  0.76273278  0.20913638     0.36700
N483        N  0.27182655  0.75238149  0.38657394    -0.38100
N484        N  0.14580907  0.76545249  0.17694687    -0.38100
N485        N  0.20092494  0.65814870  0.31302386    -0.37500
N486        N  0.20853002  0.85637439  0.26139790    -0.37500
C487        C  0.49250231  0.32927224  0.11031853    -0.04200
C488        C  0.46425385  0.33260380  0.08544303    -0.01300
C489        C  0.46414912  0.36712976  0.08656503     0.03700
C490        C  0.49110570  0.39837147  0.11450962    -0.04200
C491        C  0.51779697  0.39420216  0.14174691    -0.01300
C492        C  0.51921171  0.36042544  0.13868251     0.03700
C493        C  0.43430093  0.30022896  0.05944308     0.38300
C494        C  0.54320641  0.42413523  0.17441330     0.38300
C495        C  0.54917457  0.35867716  0.16393477     0.36700
C496        C  0.43660005  0.37044438  0.05762430     0.36700
N497        N  0.57311920  0.35747305  0.18417591    -0.38100
N498        N  0.41456529  0.37291229  0.03454703    -0.38100
N499        N  0.56331060  0.44780802  0.20071211    -0.37500
N500        N  0.41035837  0.27452421  0.03870475    -0.37500
C501        C  0.52119930  0.17950801  0.24379450    -0.04200
C502        C  0.49768798  0.19428547  0.25470205    -0.01300
C503        C  0.49566937  0.22032409  0.22323948     0.03700
C504        C  0.51709292  0.23165426  0.18086189    -0.04200
C505        C  0.54263333  0.21906185  0.17169709    -0.01300
C506        C  0.54423753  0.19262144  0.20257736     0.03700
C507        C  0.47552165  0.18285607  0.29826919     0.38300
C508        C  0.56666344  0.23260881  0.12956860     0.38300
C509        C  0.56802056  0.17729592  0.19026871     0.36700
C510        C  0.47011557  0.23390574  0.23333342     0.36700
N511        N  0.58684733  0.16498289  0.18033020    -0.38100
N512        N  0.44983959  0.24488402  0.24133652    -0.38100
N513        N  0.58578206  0.24332017  0.09601632    -0.37500
N514        N  0.45767997  0.17380819  0.33288057    -0.37500
C515        C  0.47269473  0.21569037  0.02035840    -0.04200
C516        C  0.49550787  0.22911263  0.97918688    -0.01300
C517        C  0.50604778  0.20886159  0.45652208     0.03700
C518        C  0.48300692  0.16852448  0.46143068    -0.04200
C519        C  0.45404304  0.14984395  0.00202524    -0.01300
C520        C  0.44869261  0.17571073  0.02836128     0.03700
C521        C  0.51884921  0.27001743  0.96946708     0.38300
C522        C  0.43622788  0.11011702  0.01756338     0.38300
C523        C  0.42170502  0.16175129  0.06753271     0.36700
C524        C  0.53554049  0.22562735  0.42031215     0.36700
N525        N  0.40028829  0.15078476  0.09883391    -0.38100
N526        N  0.55882926  0.23890197  0.39116989    -0.38100
N527        N  0.42255609  0.07875907  0.03114247    -0.37500
N528        N  0.53761149  0.30265663  0.96168497    -0.37500
C529        C  0.48787837  0.28979407  0.61252787     0.81300
N530        N  0.48032354  0.27083249  0.57042633    -0.77000
C531        C  0.47866655  0.23680303  0.56842062     0.83800
N532        N  0.48599469  0.22265824  0.60769998    -0.76900
C533        C  0.49474097  0.24152470  0.64923191     0.83900
N534        N  0.49532013  0.27505511  0.65207235    -0.78600
C535        C  0.28279317  0.87505040  0.89991288     0.81300
N536        N  0.26364564  0.85202910  0.86247049    -0.77000
C537        C  0.22792935  0.82124279  0.86878696     0.83800
N538        N  0.21200872  0.81292646  0.91234648    -0.76900
C539        C  0.23081616  0.83501560  0.95001584     0.83900
N540        N  0.26654249  0.86600796  0.94393144    -0.78600
C541        C  0.84225692  0.21661407  0.62378287     0.81300
N542        N  0.86744486  0.22888794  0.58694308    -0.77000
C543        C  0.90317580  0.26010718  0.59220314     0.83800
N544        N  0.91272214  0.27885475  0.63409759    -0.76900
C545        C  0.88789692  0.26689939  0.67060249     0.83900
N546        N  0.85246808  0.23586346  0.66554609    -0.78600
C547        C  0.67093463  0.82949198  0.88628188     0.81300
N548        N  0.66228050  0.84448633  0.84811190    -0.77000
C549        C  0.66121148  0.87698843  0.85253648     0.83800
N550        N  0.66748652  0.89387286  0.89519069    -0.76900
C551        C  0.67534472  0.87916822  0.93357781     0.83900
N552        N  0.67677165  0.84681434  0.92929787    -0.78600
C553        C  0.89502526  0.65427753  0.60586841     0.81300
N554        N  0.88659555  0.66237756  0.56201906    -0.77000
C555        C  0.85519490  0.66500560  0.55629501     0.83800
N556        N  0.83211522  0.65836253  0.59370037    -0.76900
C557        C  0.83949968  0.64898576  0.63678262     0.83900
N558        N  0.87101052  0.64678822  0.64302420    -0.78600
C559        C  0.24540110  0.45594183  0.85933372     0.81300
N560        N  0.26853443  0.46325493  0.89758083    -0.77000
C561        C  0.30108097  0.46289812  0.89263718     0.83800
N562        N  0.31026765  0.45520754  0.85008656    -0.76900
C563        C  0.28782531  0.44826572  0.81188854     0.83900
N564        N  0.25552917  0.44929467  0.81607126    -0.78600
Zn565      Zn  0.03898823  0.45450620  0.83100445     1.49700
Zn566      Zn  0.04956886  0.45953518  0.94374615     1.49400
Zn567      Zn  0.02266603  0.51247113  0.89005389     1.49100
Zn568      Zn  0.96886972  0.42215874  0.89922084     1.49500
O569        O  0.02088893  0.46352368  0.89057740    -1.83000
O570        O  0.08653032  0.45335589  0.84287295    -0.73600
O571        O  0.06002820  0.49979323  0.99370015    -0.73400
O572        O  0.04610119  0.54010060  0.82403158    -0.73000
O573        O  0.09865020  0.46612227  0.91994261    -0.73600
O574        O  0.05206884  0.49707197  0.78272644    -0.73200
O575        O  0.05009183  0.54133757  0.95334605    -0.73800
O576        O  0.93487100  0.44038009  0.91532666    -0.73200
O577        O  0.02160001  0.40590115  0.97329663    -0.74000
O578        O  0.96760276  0.50213601  0.89429597    -0.73400
O579        O  0.96333630  0.38384774  0.94687860    -0.73800
O580        O  0.94717349  0.39051977  0.84183116    -0.73700
O581        O  0.99929052  0.40385718  0.80216889    -0.73500
C582        C  0.10759275  0.45984539  0.87918867     0.78300
C583        C  0.06024298  0.53121422  0.99153638     0.78700
C584        C  0.05436953  0.52941076  0.78523305     0.77700
C585        C  0.93665748  0.47194026  0.90765395     0.78100
C586        C  0.98669284  0.37920847  0.97112915     0.79200
C587        C  0.96341836  0.38346554  0.80883371     0.78300
Zn588      Zn  0.08837046  0.63420710  0.58152218     1.49700
Zn589      Zn  0.15794737  0.66682961  0.65060953     1.49400
Zn590      Zn  0.07911345  0.62875401  0.69604876     1.49100
Zn591      Zn  0.10599499  0.57622013  0.64068978     1.49500
O592        O  0.10655502  0.62477572  0.64170084    -1.83000
O593        O  0.12719850  0.68560803  0.55181460    -0.73600
O594        O  0.16908442  0.68900844  0.71433665    -0.73400
O595        O  0.03324259  0.63029565  0.67312936    -0.73000
O596        O  0.17120263  0.71064465  0.60788374    -0.73600
O597        O  0.04208349  0.63750970  0.59453574    -0.73200
O598        O  0.11197080  0.67779300  0.73326994    -0.73800
O599        O  0.08041258  0.54696305  0.70544997    -0.73200
O600        O  0.19491458  0.65185644  0.63811534    -0.74000
O601        O  0.06452617  0.58482726  0.74267604    -0.73400
O602        O  0.16188270  0.58798283  0.63726098    -0.73800
O603        O  0.08040688  0.54802595  0.57618217    -0.73700
O604        O  0.07490032  0.59155441  0.53390668    -0.73500
C605        C  0.15800458  0.71360375  0.56840600     0.78300
C606        C  0.14790548  0.69595003  0.73928563     0.78700
C607        C  0.02366980  0.63550153  0.63184108     0.77700
C608        C  0.06703000  0.55494168  0.74204462     0.78100
C609        C  0.19346455  0.62022894  0.63482576     0.79200
C610        C  0.07229391  0.55901265  0.53706919     0.78300
Zn611      Zn  0.55164076  0.11797873  0.93474817     1.49700
Zn612      Zn  0.56819038  0.12378996  0.82477971     1.49400
Zn613      Zn  0.52446127  0.04113053  0.87604037     1.49100
Zn614      Zn  0.48465110  0.09015495  0.85892858     1.49500
O615        O  0.53231449  0.09260308  0.87430566    -1.83000
O616        O  0.60345189  0.16572789  0.92538414    -0.73600
O617        O  0.57074120  0.08968279  0.77447163    -0.73400
O618        O  0.54852329  0.03505082  0.93979435    -0.73000
O619        O  0.61931555  0.16608382  0.85047065    -0.73600
O620        O  0.55349127  0.08248005  0.98440542    -0.73200
O621        O  0.54277931  0.03196731  0.80983657    -0.73800
O622        O  0.44072899  0.03633743  0.86193179    -0.73200
O623        O  0.54906967  0.15386833  0.79203670    -0.74000
O624        O  0.46695803  0.00225467  0.88172070    -0.73400
O625        O  0.48631481  0.11699211  0.79805018    -0.73800
O626        O  0.47419157  0.12021480  0.90510351    -0.73700
O627        O  0.52052731  0.13910784  0.95839442    -0.73500
C628        C  0.62683014  0.18200137  0.89114553     0.78300
C629        C  0.55890619  0.05389028  0.77335177     0.78700
C630        C  0.55448788  0.05192317  0.98020924     0.77700
C631        C  0.43758801  0.00473434  0.87443622     0.78100
C632        C  0.51591620  0.14655835  0.78146306     0.79200
C633        C  0.49161173  0.13889821  0.94187517     0.78300
Zn634      Zn  0.54583388  0.00440347  0.62578738     1.49700
Zn635      Zn  0.62143573  0.02151582  0.56735734     1.49400
Zn636      Zn  0.62444422  0.02509254  0.68063496     1.49100
Zn637      Zn  0.57908021  0.94999567  0.63341592     1.49500
O638        O  0.59207584  0.00191602  0.62596665    -1.83000
O639        O  0.54811162  0.03508997  0.56261059    -0.73600
O640        O  0.67195829  0.06939229  0.58108450    -0.73400
O641        O  0.59785430  0.03867077  0.72935123    -0.73000
O642        O  0.59282672  0.03386772  0.51894115    -0.73600
O643        O  0.54478072  0.02825678  0.69304181    -0.73200
O644        O  0.67315758  0.07170700  0.66013068    -0.73800
O645        O  0.58401416  0.93510059  0.69860050    -0.73200
O646        O  0.63476842  0.98433960  0.53998034    -0.74000
O647        O  0.63813622  0.98920655  0.71258545    -0.73400
O648        O  0.61177026  0.93868153  0.59536125    -0.73800
O649        O  0.52736607  0.91474021  0.61331440    -0.73700
O650        O  0.49847772  0.94796898  0.61876585    -0.73500
C651        C  0.56619508  0.04090932  0.52298150     0.78300
C652        C  0.68880600  0.08500736  0.61986012     0.72900
C653        C  0.56698757  0.03883405  0.72970549     0.77700
C654        C  0.61560191  0.95343892  0.72006871     0.78100
C655        C  0.63041314  0.95336061  0.55744567     0.79200
C656        C  0.49755829  0.91643391  0.61171389     0.78300
C657        C  0.71479524  0.40221359  0.89736995     0.04300
C658        C  0.75446451  0.42675713  0.90163852    -0.11900
C659        C  0.77805912  0.41154342  0.90642712     0.01800
C660        C  0.76177774  0.37146279  0.90669481    -0.10400
C661        C  0.72222878  0.34669699  0.90227382     0.04200
C662        C  0.69879410  0.36222518  0.89785484    -0.09800
H663        H  0.76692584  0.45757554  0.90098165     0.09800
H664        H  0.77985925  0.35959878  0.91003698     0.07400
H665        H  0.66829074  0.34328189  0.89419537     0.07200
C666        C  0.41787193  0.70277097  0.61272646     0.04300
C667        C  0.37839458  0.67639902  0.61572346    -0.11900
C668        C  0.35270206  0.68927594  0.61416322     0.01800
C669        C  0.36664372  0.72882276  0.61006174    -0.10400
C670        C  0.40595428  0.75543904  0.60727363     0.04200
C671        C  0.43144341  0.74220294  0.60830258    -0.09800
H672        H  0.36769043  0.64589097  0.61932219     0.09800
H673        H  0.34698285  0.73884157  0.60935462     0.07400
H674        H  0.46200163  0.76272905  0.60638245     0.07200
Zn675      Zn  0.49744158  0.55849032  0.56322816     1.49700
Zn676      Zn  0.53909171  0.52238637  0.61910929     1.49400
Zn677      Zn  0.48857025  0.54991599  0.67446508     1.49100
Zn678      Zn  0.44854564  0.47563694  0.60739667     1.49500
O679        O  0.49399011  0.52670655  0.61695622    -1.83000
O680        O  0.53637185  0.56378958  0.51560105    -0.73600
O681        O  0.56530009  0.54189770  0.68500021    -0.73400
O682        O  0.49077743  0.59999037  0.65878385    -0.73000
O683        O  0.57054316  0.54489130  0.55621532    -0.73600
O684        O  0.50350548  0.60886508  0.58196605    -0.73200
O685        O  0.52729298  0.55580273  0.72524731    -0.73800
O686        O  0.40865160  0.46437879  0.65475603    -0.73200
O687        O  0.52315909  0.46621281  0.61819457    -0.74000
O688        O  0.43523693  0.51651787  0.69970969    -0.73400
O689        O  0.46030294  0.43415890  0.61186128    -0.73800
O690        O  0.42098216  0.47150561  0.54662927    -0.73700
O691        O  0.44834182  0.53336654  0.52867110    -0.73500
C692        C  0.56338774  0.55717787  0.51764528     0.78300
C693        C  0.55598279  0.55157307  0.72365835     0.78700
C694        C  0.49572978  0.61928394  0.62062395     0.77700
C695        C  0.40672128  0.48415808  0.68777276     0.78100
C696        C  0.49133643  0.43458302  0.61546230     0.79200
C697        C  0.42187229  0.49869945  0.52301439     0.78300
Zn698      Zn  0.60508810  0.59284848  0.86834119     1.49700
Zn699      Zn  0.69459504  0.63661528  0.85176530     1.49400
Zn700      Zn  0.65529559  0.56521079  0.92494641     1.49100
Zn701      Zn  0.64354151  0.55272596  0.81409305     1.49500
O702        O  0.64891156  0.58655470  0.86568212    -1.83000
O703        O  0.62350686  0.64974742  0.87034570    -0.73600
O704        O  0.73574826  0.64820622  0.89771375    -0.73400
O705        O  0.61734587  0.56062685  0.97586557    -0.73000
O706        O  0.68544720  0.67974214  0.85414195    -0.73600
O707        O  0.57817853  0.57241275  0.93382157    -0.73200
O708        O  0.70924483  0.59842297  0.94780268    -0.73800
O709        O  0.63585963  0.50178018  0.83696714    -0.73200
O710        O  0.71953359  0.63814157  0.79085459    -0.74000
O711        O  0.65240516  0.51481000  0.91262992    -0.73400
O712        O  0.69277137  0.57571636  0.77868103    -0.73800
O713        O  0.60425639  0.54842184  0.76658365    -0.73700
O714        O  0.57372218  0.57213421  0.80502379    -0.73500
C715        C  0.65569726  0.68043832  0.86369171     0.78300
C716        C  0.73793167  0.62961005  0.93265241     0.78700
C717        C  0.58806478  0.56387059  0.97331660     0.77700
C718        C  0.64552214  0.49358350  0.87642572     0.78100
C719        C  0.71905595  0.61025035  0.77058442     0.79200
C720        C  0.57900709  0.55766153  0.76755148     0.78300
C721        C  0.44489034  0.68874845  0.61531119    -0.04200
C722        C  0.46019257  0.68334272  0.57352563    -0.01300
C723        C  0.48178471  0.66539301  0.57562159     0.03700
C724        C  0.48680999  0.65094020  0.61970112    -0.04200
C725        C  0.47595201  0.66160470  0.66202038    -0.01300
C726        C  0.45462134  0.67981494  0.65964642     0.03700
C727        C  0.45229518  0.69481543  0.52797786     0.38300
C728        C  0.48670409  0.65423863  0.70829444     0.38300
C729        C  0.44190304  0.68875961  0.70294478     0.36700
C730        C  0.49827205  0.66179289  0.53193373     0.36700
N731        N  0.43175971  0.69602884  0.73737608    -0.38100
N732        N  0.51156067  0.65922761  0.49703548    -0.38100
N733        N  0.49541056  0.64866647  0.74531082    -0.37500
N734        N  0.44594361  0.70383573  0.49160693    -0.37500
C735        C  0.69039938  0.41896719  0.89041128    -0.04200
C736        C  0.67189705  0.42381743  0.92932828    -0.01300
C737        C  0.65332076  0.44466235  0.92373104     0.03700
C738        C  0.65387907  0.46175402  0.87922087    -0.04200
C739        C  0.66926167  0.45327853  0.83920547    -0.01300
C740        C  0.68748966  0.43215720  0.84503495     0.03700
C741        C  0.67333212  0.40860427  0.97563172     0.38300
C742        C  0.66847257  0.46773987  0.79210367     0.38300
C743        C  0.70447008  0.42493898  0.80442164     0.36700
C744        C  0.63378215  0.44854941  0.96407201     0.36700
N745        N  0.71797266  0.41907062  0.77212230    -0.38100
N746        N  0.61810315  0.45149825  0.99627446    -0.38100
N747        N  0.66789295  0.47901218  0.75435049    -0.37500
N748        N  0.67458787  0.39647622  0.01253100    -0.37500
C749        C  0.46192010  0.87894370  0.60415295    -0.04200
C750        C  0.45867014  0.85876344  0.56205971    -0.01300
C751        C  0.43799961  0.81818149  0.56211086     0.03700
C752        C  0.42077883  0.79749361  0.60437595    -0.04200
C753        C  0.42032132  0.81751795  0.64484365    -0.01300
C754        C  0.44047126  0.85816202  0.64446518     0.03700
C755        C  0.47932821  0.87989095  0.51974706     0.38300
C756        C  0.40178494  0.79646244  0.68810185     0.38300
C757        C  0.44239797  0.87871438  0.68714239     0.36700
C758        C  0.43574039  0.79763324  0.51924472     0.36700
N759        N  0.44401091  0.89526313  0.72109579    -0.38100
N760        N  0.43374395  0.78109304  0.48510806    -0.38100
N761        N  0.38710838  0.77961021  0.72264220    -0.37500
N762        N  0.49586479  0.89664488  0.48597461    -0.37500
C763        C  0.70494733  0.30419832  0.90207850    -0.04200
C764        C  0.70487861  0.28535142  0.86033957    -0.01300
C765        C  0.68295871  0.24472560  0.85793877     0.03700
C766        C  0.66052557  0.22248108  0.89754072    -0.04200
C767        C  0.66619062  0.24173357  0.94160150    -0.01300
C768        C  0.68739167  0.28231335  0.94335046     0.03700
C769        C  0.72646757  0.30797190  0.81927644     0.38300
C770        C  0.65025726  0.22032546  0.98553617     0.38300
C771        C  0.69060459  0.30178002  0.98759682     0.36700
C772        C  0.68352783  0.22642259  0.81428057     0.36700
N773        N  0.69322162  0.31738890  0.02281207    -0.38100
N774        N  0.68426467  0.21205122  0.77937054    -0.38100
N775        N  0.63774135  0.20344008  0.02073450    -0.37500
N776        N  0.74388602  0.32609548  0.78668579    -0.37500
C777        C  0.31081756  0.66183209  0.61770347    -0.04200
C778        C  0.29361476  0.64726098  0.66249417    -0.01300
C779        C  0.25356183  0.62804311  0.66731489     0.03700
C780        C  0.23058483  0.62332199  0.62740463    -0.04200
C781        C  0.24762751  0.63478325  0.58199223    -0.01300
C782        C  0.28761724  0.65399853  0.57714552     0.03700
C783        C  0.31731078  0.65492238  0.70421841     0.38300
C784        C  0.22415001  0.62988727  0.54081792     0.38300
C785        C  0.30510441  0.66786164  0.53081274     0.36700
C786        C  0.23620846  0.61624074  0.71401377     0.36700
N787        N  0.31913393  0.67907847  0.49392148    -0.38100
N788        N  0.22236659  0.60691474  0.75128695    -0.38100
N789        N  0.20537349  0.62614953  0.50810235    -0.37500
N790        N  0.33629709  0.66123469  0.73747638    -0.37500
C791        C  0.90018875  0.47083189  0.91209395    -0.04200
C792        C  0.88229835  0.47396286  0.87078122    -0.01300
C793        C  0.84227887  0.45695756  0.86979658     0.03700
C794        C  0.82019782  0.43719769  0.91028586    -0.04200
C795        C  0.83868649  0.43856561  0.95326359    -0.01300
C796        C  0.87854512  0.45518761  0.95412547     0.03700
C797        C  0.90449831  0.49127374  0.82794564     0.38300
C798        C  0.81644655  0.42139518  0.99611492     0.38300
C799        C  0.89710526  0.45380566  0.99748620     0.36700
C800        C  0.82360909  0.45725220  0.82607483     0.36700
N801        N  0.91194910  0.45252964  0.03192217    -0.38100
N802        N  0.80876787  0.45751929  0.79113739    -0.38100
N803        N  0.79869572  0.40778341  0.03031595    -0.37500
N804        N  0.92221011  0.50507393  0.79376185    -0.37500
C805        C  0.21033248  0.45720763  0.86424919    -0.04200
C806        C  0.21165732  0.48907886  0.88569576    -0.01300
C807        C  0.17798485  0.48976680  0.89123356     0.03700
C808        C  0.14303905  0.45918804  0.87394217    -0.04200
C809        C  0.14193175  0.42764180  0.85180791    -0.01300
C810        C  0.17535716  0.42642770  0.84756213     0.03700
C811        C  0.24787145  0.52194563  0.90031213     0.38300
C812        C  0.10625209  0.39570012  0.83445935     0.38300
C813        C  0.17343217  0.39276710  0.82753069     0.36700
C814        C  0.17958939  0.52254412  0.91344695     0.36700
N815        N  0.17193404  0.36592805  0.81171575    -0.38100
N816        N  0.18087711  0.54863349  0.93129927    -0.38100
N817        N  0.07810338  0.37009509  0.82012547    -0.37500
N818        N  0.27678062  0.54820927  0.91172873    -0.37500
C819        C  0.39138358  0.49057775  0.48850626    -0.04200
C820        C  0.39751579  0.51397365  0.94916328    -0.01300
C821        C  0.36684273  0.50716313  0.92014230     0.03700
C822        C  0.32984490  0.47603727  0.93028917    -0.04200
C823        C  0.32272272  0.45424105  0.97217165    -0.01300
C824        C  0.35253583  0.46692891  0.50141884     0.03700
C825        C  0.43596604  0.54302986  0.93470656     0.38300
C826        C  0.28392420  0.43694079  0.48243316     0.38300
C827        C  0.34207725  0.44867221  0.54799977     0.36700
C828        C  0.37336313  0.53207973  0.87933966     0.36700
N829        N  0.33359676  0.43392686  0.58503357    -0.38100
N830        N  0.37846221  0.55201106  0.84700933    -0.38100
N831        N  0.25216820  0.41766120  0.49297129    -0.37500
N832        N  0.46657209  0.56602144  0.92293121    -0.37500
C833        C  0.30458366  0.44880119  0.76580853    -0.04200
C834        C  0.32164369  0.48337654  0.73933900    -0.01300
C835        C  0.35441869  0.49426167  0.71218485     0.03700
C836        C  0.36966970  0.47021921  0.71101451    -0.04200
C837        C  0.34922817  0.43314910  0.73170619    -0.01300
C838        C  0.31655554  0.42245394  0.75907853     0.03700
C839        C  0.30799048  0.50960519  0.74411551     0.38300
C840        C  0.36339043  0.40728060  0.72814854     0.38300
C841        C  0.29705765  0.38570333  0.78388541     0.36700
C842        C  0.37306425  0.53070875  0.68656658     0.36700
N843        N  0.28147083  0.35642167  0.80372964    -0.38100
N844        N  0.38799028  0.55975664  0.66616729    -0.38100
N845        N  0.37469407  0.38664765  0.72535680    -0.37500
N846        N  0.29714180  0.53054213  0.74800860    -0.37500
C847        C  0.92795307  0.64951938  0.61227452    -0.04200
C848        C  0.92196474  0.61269714  0.62190284    -0.01300
C849        C  0.95332855  0.60811944  0.62902732     0.03700
C850        C  0.99068155  0.64034763  0.62677988    -0.04200
C851        C  0.99663020  0.67725898  0.61794722    -0.01300
C852        C  0.96529959  0.68176882  0.61010320     0.03700
C853        C  0.88353057  0.57938110  0.62310251     0.38300
C854        C  0.03490782  0.71077531  0.61842556     0.38300
C855        C  0.97139782  0.71963600  0.60061115     0.36700
C856        C  0.94726591  0.57021872  0.63790926     0.36700
N857        N  0.97617802  0.74978437  0.59292566    -0.38100
N858        N  0.94250898  0.54000910  0.64497427    -0.38100
N859        N  0.06529233  0.73774279  0.61922378    -0.37500
N860        N  0.85283255  0.55287970  0.62391450    -0.37500
C861        C  0.80990972  0.63583031  0.67372331    -0.04200
C862        C  0.77196312  0.60723137  0.66237894    -0.01300
C863        C  0.74221046  0.59867786  0.69407883     0.03700
C864        C  0.75033508  0.61813737  0.73777340    -0.04200
C865        C  0.78868884  0.64463432  0.75057411    -0.01300
C866        C  0.81838219  0.65368670  0.71834822     0.03700
C867        C  0.76344321  0.58637270  0.61798745     0.38300
C868        C  0.79792966  0.66196842  0.79730659     0.38300
C869        C  0.85743253  0.68233311  0.73043122     0.36700
C870        C  0.70316798  0.57079578  0.68075532     0.36700
N871        N  0.88858281  0.70517127  0.74004593    -0.38100
N872        N  0.67208630  0.54852160  0.67011140    -0.38100
N873        N  0.80568965  0.67584506  0.83452284    -0.37500
N874        N  0.75666915  0.56978135  0.58263431    -0.37500
C875        C  0.83869459  0.66357585  0.50936800    -0.04200
C876        C  0.82825484  0.69078256  0.49890267    -0.01300
C877        C  0.79566947  0.68021828  0.47114821     0.03700
C878        C  0.77538059  0.64333608  0.95448897    -0.04200
C879        C  0.79199721  0.62061809  0.95159614    -0.01300
C880        C  0.81993508  0.62777508  0.48630720     0.03700
C881        C  0.84930906  0.72854796  0.52014151     0.38300
C882        C  0.77459140  0.58648094  0.92231150     0.38300
C883        C  0.84120149  0.60649759  0.97686497     0.36700
C884        C  0.78345750  0.70738905  0.46307790     0.36700
N885        N  0.85450381  0.58758891  0.97465826    -0.38100
N886        N  0.77365725  0.72900920  0.45653424    -0.38100
N887        N  0.76058778  0.55923740  0.89903177    -0.37500
N888        N  0.86611362  0.75869475  0.53706254    -0.37500
C889        C  0.66984601  0.79223062  0.88161412    -0.04200
C890        C  0.65981979  0.76627704  0.92084721    -0.01300
C891        C  0.65379662  0.72926759  0.91420462     0.03700
C892        C  0.65938334  0.71821813  0.86922078    -0.04200
C893        C  0.67195649  0.74454628  0.83095319    -0.01300
C894        C  0.67715756  0.78129147  0.83690842     0.03700
C895        C  0.65659502  0.77713958  0.96874053     0.38300
C896        C  0.67921658  0.73358808  0.78507782     0.38300
C897        C  0.69173695  0.80811737  0.79707695     0.36700
C898        C  0.64304565  0.70279275  0.95430381     0.36700
N899        N  0.70338529  0.82923295  0.76505595    -0.38100
N900        N  0.63451462  0.68170885  0.98621127    -0.38100
N901        N  0.68507490  0.72486480  0.74856149    -0.37500
N902        N  0.65471662  0.78532598  0.00747053    -0.37500
C903        C  0.64552960  0.93246063  0.53238606    -0.04200
C904        C  0.68364633  0.95103675  0.02021979    -0.01300
C905        C  0.69624624  0.93205198  0.99090157     0.03700
C906        C  0.67146089  0.89300103  0.97992162    -0.04200
C907        C  0.63607791  0.87163754  0.00340733    -0.01300
C908        C  0.62338274  0.89041581  0.03275398     0.03700
C909        C  0.70874636  0.99254538  0.52427357     0.38300
C910        C  0.61045319  0.83126987  0.99268823     0.38300
C911        C  0.58251793  0.87187431  0.54268034     0.36700
C912        C  0.73379544  0.95311830  0.96937378     0.36700
N913        N  0.55139139  0.85547793  0.55634962    -0.38100
N914        N  0.76378100  0.96985446  0.95225429    -0.38100
N915        N  0.58954495  0.79919367  0.98420362    -0.37500
N916        N  0.72916207  0.02482749  0.53218895    -0.37500
C917        C  0.62661074  0.93223877  0.75255612    -0.04200
C918        C  0.60107289  0.90794605  0.78818042    -0.01300
C919        C  0.61149397  0.88742986  0.81871965     0.03700
C920        C  0.64754293  0.89136044  0.81401207    -0.04200
C921        C  0.67242585  0.91432846  0.77732441    -0.01300
C922        C  0.66182384  0.93446946  0.74623062     0.03700
C923        C  0.56469882  0.90518455  0.79468554     0.38300
C924        C  0.70947645  0.91839105  0.77277607     0.38300
C925        C  0.68668504  0.95659149  0.70696540     0.36700
C926        C  0.58543327  0.86283447  0.85580579     0.36700
N927        N  0.70633806  0.97397781  0.67541298    -0.38100
N928        N  0.56468602  0.84322065  0.88535345    -0.38100
N929        N  0.73910390  0.92176608  0.76920689    -0.37500
N930        N  0.53573186  0.90303475  0.79984081    -0.37500
C931        C  0.80389543  0.18209022  0.61948445    -0.04200
C932        C  0.77714112  0.18121815  0.58707714    -0.01300
C933        C  0.73948116  0.14927483  0.58646870     0.03700
C934        C  0.72847310  0.11832439  0.61867994    -0.04200
C935        C  0.75578985  0.11898619  0.65017553    -0.01300
C936        C  0.79323281  0.15082341  0.65067934     0.03700
C937        C  0.78771872  0.21406437  0.55627239     0.38300
C938        C  0.74584112  0.08655071  0.68156183     0.38300
C939        C  0.82099172  0.15136619  0.68336113     0.36700
C940        C  0.71180003  0.14912905  0.55410495     0.36700
N941        N  0.84313420  0.15194782  0.70945827    -0.38100
N942        N  0.68976993  0.14904087  0.52823683    -0.38100
N943        N  0.73803667  0.06084558  0.70675254    -0.37500
N944        N  0.79598569  0.24030892  0.53185751    -0.37500
C945        C  0.93987656  0.35012998  0.77827120    -0.04200
C946        C  0.94781958  0.32045730  0.77545460    -0.01300
C947        C  0.92814656  0.29073041  0.74259785     0.03700
C948        C  0.89966967  0.28997384  0.71385514    -0.04200
C949        C  0.88838504  0.31678553  0.72087119    -0.01300
C950        C  0.90874632  0.34718333  0.75284695     0.03700
C951        C  0.97490253  0.31953770  0.80777902     0.38300
C952        C  0.85695902  0.31397210  0.69367856     0.38300
C953        C  0.89868768  0.37619195  0.75803540     0.36700
C954        C  0.93735241  0.26106388  0.73779327     0.36700
N955        N  0.89064105  0.39930005  0.76229414    -0.38100
N956        N  0.94447899  0.23725871  0.73391358    -0.38100
N957        N  0.83168188  0.31147366  0.67222137    -0.37500
N958        N  0.99570327  0.31806114  0.83430218    -0.37500
C959        C  0.93005721  0.27877526  0.55160302    -0.04200
C960        C  0.96885913  0.30568958  0.56144607    -0.01300
C961        C  0.98958348  0.33833608  0.53199642     0.03700
C962        C  0.97177997  0.34197329  0.99744015    -0.04200
C963        C  0.93733204  0.30876025  0.98254323    -0.01300
C964        C  0.91636042  0.27823819  0.50543415     0.03700
C965        C  0.98680962  0.30059092  0.60312976     0.38300
C966        C  0.92250015  0.30661348  0.93494675     0.38300
C967        C  0.88073659  0.24468854  0.99916685     0.36700
C968        C  0.02787847  0.36780243  0.54568446     0.36700
N969        N  0.85216616  0.21845698  0.98677026    -0.38100
N970        N  0.05845503  0.39114466  0.55682133    -0.38100
N971        N  0.91046871  0.30467028  0.89710560    -0.37500
N972        N  0.00111944  0.29644463  0.63628967    -0.37500
C973        C  0.32255123  0.90779992  0.89383488    -0.04200
C974        C  0.35049507  0.90244552  0.87235064    -0.01300
C975        C  0.38832310  0.93371541  0.86689223     0.03700
C976        C  0.39843977  0.97076960  0.88227735    -0.04200
C977        C  0.37048033  0.97571457  0.90479235    -0.01300
C978        C  0.33285466  0.94447783  0.91041859     0.03700
C979        C  0.34062167  0.86455229  0.85666270     0.38300
C980        C  0.38031121  0.01289293  0.92318731     0.38300
C981        C  0.30440549  0.95049497  0.93211252     0.36700
C982        C  0.41649994  0.92768455  0.84458619     0.36700
N983        N  0.28178737  0.95535993  0.94939524    -0.38100
N984        N  0.43897183  0.92272995  0.82704704    -0.38100
N985        N  0.38790282  0.04254641  0.93750493    -0.37500
N986        N  0.33277234  0.83437864  0.84400372    -0.37500
C987        C  0.21624633  0.81734909  0.99712488    -0.04200
C988        C  0.17730083  0.80211429  0.00725804    -0.01300
C989        C  0.15728642  0.76916643  0.03642186     0.03700
C990        C  0.18008902  0.75006440  0.54079632    -0.04200
C991        C  0.22055906  0.76991574  0.54004112    -0.01300
C992        C  0.23637347  0.80326332  0.02212051     0.03700
C993        C  0.15732512  0.81871346  0.98461059     0.38300
C994        C  0.24101120  0.75577568  0.56719808     0.38300
C995        C  0.27703326  0.82038585  0.01457395     0.36700
C996        C  0.11735873  0.75359480  0.04719355     0.36700
N997        N  0.31534259  0.83480683  0.50409135    -0.38100
N998        N  0.08559220  0.74129650  0.05622323    -0.38100
N999        N  0.25742849  0.74451090  0.58854070    -0.37500
N1000       N  0.14136587  0.83189803  0.96643715    -0.37500
C1001       C  0.20982873  0.79116705  0.83282950    -0.04200
C1002       C  0.18399740  0.79134079  0.80003515    -0.01300
C1003       C  0.16215049  0.75922923  0.77086841     0.03700
C1004       C  0.16654443  0.72712427  0.77421645    -0.04200
C1005       C  0.19266101  0.72717938  0.80706561    -0.01300
C1006       C  0.21394332  0.75897281  0.83666304     0.03700
C1007       C  0.17982728  0.82448023  0.79663803     0.38300
C1008       C  0.19715103  0.69420823  0.81106614     0.38300
C1009       C  0.23950467  0.75825198  0.87196089     0.36700
C1010       C  0.13610628  0.75982033  0.73644196     0.36700
N1011       N  0.25971210  0.75767912  0.90030606    -0.38100
N1012       N  0.11531028  0.76037898  0.70906130    -0.38100
N1013       N  0.20080943  0.66798268  0.81420122    -0.37500
N1014       N  0.17664970  0.85101294  0.79389225    -0.37500
C1015       C  0.48835256  0.32656712  0.61474665    -0.04200
C1016       C  0.46059484  0.33048113  0.58972172    -0.01300
C1017       C  0.46194195  0.36572163  0.58940948     0.03700
C1018       C  0.49019591  0.39732944  0.61579223    -0.04200
C1019       C  0.51717397  0.39296071  0.64225378    -0.01300
C1020       C  0.51672005  0.35810341  0.64093900     0.03700
C1021       C  0.42979754  0.29795753  0.56485953     0.38300
C1022       C  0.54497550  0.42385257  0.67209159     0.38300
C1023       C  0.54646930  0.35544481  0.66537973     0.36700
C1024       C  0.43453154  0.36931802  0.56052615     0.36700
N1025       N  0.57028378  0.35348107  0.68483008    -0.38100
N1026       N  0.41259951  0.37201659  0.53752315    -0.38100
N1027       N  0.56711277  0.44834351  0.69602961    -0.37500
N1028       N  0.40526405  0.27212626  0.54496645    -0.37500
C1029       C  0.51234911  0.17373954  0.74976770    -0.04200
C1030       C  0.48735697  0.18665977  0.76135593    -0.01300
C1031       C  0.48444436  0.21278737  0.73096012     0.03700
C1032       C  0.50603107  0.22554563  0.68879675    -0.04200
C1033       C  0.53328748  0.21525560  0.67943653    -0.01300
C1034       C  0.53595326  0.18891966  0.70920837     0.03700
C1035       C  0.46448297  0.17311883  0.80431926     0.38300
C1036       C  0.55806766  0.23115465  0.63814423     0.38300
C1037       C  0.56138585  0.17573111  0.69617636     0.36700
C1038       C  0.45845503  0.22557704  0.74225734     0.36700
N1039       N  0.58152633  0.16511948  0.68563954    -0.38100
N1040       N  0.43797984  0.23606176  0.75152680    -0.38100
N1041       N  0.57771351  0.24380895  0.60520765    -0.37500
N1042       N  0.44600563  0.16235705  0.83840415    -0.37500
C1043       C  0.47328185  0.21602573  0.52379112    -0.04200
C1044       C  0.50171175  0.23271645  0.48837898    -0.01300
C1045       C  0.49864828  0.20283157  0.95038802     0.03700
C1046       C  0.48008670  0.16368219  0.96406233    -0.04200
C1047       C  0.45191673  0.15212874  0.49297597    -0.01300
C1048       C  0.44656665  0.17602493  0.52350605     0.03700
C1049       C  0.52921984  0.27375120  0.48821289     0.38300
C1050       C  0.42761114  0.11069542  0.49698189     0.38300
C1051       C  0.41545733  0.15925984  0.55754320     0.36700
C1052       C  0.52356914  0.21646062  0.90915738     0.36700
N1053       N  0.39072634  0.14600878  0.58478843    -0.38100
N1054       N  0.54335432  0.22715825  0.87621052    -0.38100
N1055       N  0.40838038  0.07763714  0.50052759    -0.37500
N1056       N  0.55138882  0.30642068  0.48832000    -0.37500
loop_ 
_geom_bond_atom_site_label_1 
_geom_bond_atom_site_label_2 
_geom_bond_distance 
_geom_bond_site_symmetry_2 
_ccdc_geom_bond_type 
C1            N2   1.367       .  A
C1            N6   1.366       .  A
C1          C487   1.498       .  S
N2            C3   1.357       .  A
C3            N4   1.345       .  A
C3          C515   1.471       .  S
N4            C5   1.342       .  A
C5            N6   1.357       .  A
C5          C504   1.475       .  S
C7            N8   1.360       .  A
C7           N12   1.361       .  A
C7          C445   1.471       .  S
N8            C9   1.354       .  A
C9           N10   1.347       .  A
C9          C473   1.463       .  S
N10          C11   1.348       .  A
C11          N12   1.357       .  A
C11         C459   1.473       .  S
C13          N14   1.363       .  A
C13          N18   1.361       .  A
C13         C403   1.478       .  S
N14          C15   1.361       .  A
C15          N16   1.350       .  A
C15         C431   1.494       .  S
N16          C17   1.346       .  A
C17          N18   1.354       .  A
C17         C420   1.466       .  S
C19          N20   1.362       .  A
C19          N24   1.364       .  A
C19         C361   1.496       .  S
N20          C21   1.353       .  A
C21          N22   1.344       .  A
C21         C392   1.462       .  S
N22          C23   1.346       .  A
C23          N24   1.358       .  A
C23         C378   1.465       .  S
C25          N26   1.364       .  A
C25          N30   1.362       .  A
C25         C319   1.475       .  S
N26          C27   1.359       .  A
C27          N28   1.348       .  A
C27         C347   1.471       .  S
N28          C29   1.345       .  A
C29          N30   1.357       .  A
C29         C333   1.472       .  S
C31          N32   1.363       .  A
C31          N36   1.364       .  A
C31         C277   1.484       .  S
N32          C33   1.358       .  A
C33          N34   1.346       .  A
C33         C294   1.478       .  S
N34          C35   1.346       .  A
C35          N36   1.356       .  A
C35         C305   1.469       .  S
Zn37         O41   1.942       .  S
Zn37         O42   2.002       .  S
Zn37         O46   2.015       .  S
Zn37         O53   2.022       .  S
Zn38         O41   1.955       .  S
Zn38         O43   2.045       .  S
Zn38         O45   2.020       .  S
Zn38         O49   2.039       .  S
Zn39         O41   1.949       .  S
Zn39         O44   2.129       .  S
Zn39         O47   2.122       .  S
Zn39         O50   2.083   1_455  S
Zn40         O41   1.924   1_655  S
Zn40         O48   1.964       .  S
Zn40         O51   1.966       .  S
Zn40         O52   1.985       .  S
O42          C54   1.273       .  A
O43          C55   1.279       .  A
O44          C56   1.292       .  A
O45          C54   1.275       .  A
O46          C56   1.273       .  A
O47          C55   1.292       .  A
O48          C57   1.267       .  A
O49          C58   1.274   1_455  A
O50          C57   1.281       .  A
O51          C58   1.266       .  A
O52          C59   1.268       .  A
O53          C59   1.274   1_455  A
C54         C280   1.484       .  S
C55         C610   1.501       .  S
C56          C80   1.496       .  S
C57         C263   1.484       .  S
C58         C434   1.497       .  S
C59         C417   1.476       .  S
Zn60         O64   1.934       .  S
Zn60         O65   2.052       .  S
Zn60         O69   2.015       .  S
Zn60         O76   2.041       .  S
Zn61         O64   1.884       .  S
Zn61         O66   1.949       .  S
Zn61         O68   1.953       .  S
Zn61         O72   1.933       .  S
Zn62         O64   1.940       .  S
Zn62         O67   2.020       .  S
Zn62         O70   2.031       .  S
Zn62         O73   2.026       .  S
Zn63         O64   1.939       .  S
Zn63         O71   2.128       .  S
Zn63         O74   2.107       .  S
Zn63         O75   2.117       .  S
O65          C77   1.278       .  A
O66          C78   1.264       .  A
O67          C79   1.275       .  A
O68          C77   1.264       .  A
O69          C79   1.275       .  A
O70          C78   1.273       .  A
O71          C80   1.294       .  A
O72          C81   1.263       .  A
O73          C80   1.276       .  A
O74          C81   1.282       .  A
O75          C82   1.292       .  A
O76          C82   1.279       .  A
C77         C462   1.481       .  S
C78         C476   1.472       .  S
C79         C322   1.479   1_455  S
C81         C252   1.485       .  S
C82         C583   1.498   1_554  S
Zn83         O87   1.935       .  S
Zn83         O88   2.013       .  S
Zn83         O92   2.051       .  S
Zn83         O99   1.997       .  S
Zn84         O87   1.940       .  S
Zn84         O89   2.040       .  S
Zn84         O91   2.036       .  S
Zn84         O95   1.984       .  S
Zn85         O87   1.939       .  S
Zn85         O90   2.099       .  S
Zn85         O93   2.106       .  S
Zn85         O96   2.020       .  S
Zn86         O87   1.959       .  S
Zn86         O94   1.997       .  S
Zn86         O97   2.010       .  S
Zn86         O98   2.005       .  S
O88         C100   1.274       .  A
O89         C101   1.276       .  A
O90         C102   1.288       .  A
O91         C100   1.277       .  A
O92         C102   1.277       .  A
O93         C101   1.286       .  A
O94         C103   1.273       .  A
O95         C104   1.268       .  A
O96         C103   1.275       .  A
O97         C104   1.272       .  A
O98         C105   1.269       .  A
O99         C105   1.271       .  A
C100        C238   1.513       .  S
C101        C125   1.491       .  S
C102        C651   1.493       .  S
C103        C448   1.498   1_545  S
C104        C501   1.480       .  S
C105        C518   1.470       .  S
Zn106       O110   1.950       .  S
Zn106       O111   2.128       .  S
Zn106       O115   2.147       .  S
Zn106       O122   2.119   1_545  S
Zn107       O110   1.951       .  S
Zn107       O112   2.036       .  S
Zn107       O114   2.030       .  S
Zn107       O118   2.032   1_545  S
Zn108       O110   1.927       .  S
Zn108       O113   2.006       .  S
Zn108       O116   1.993       .  S
Zn108       O119   2.008   1_545  S
Zn109       O110   1.903   1_565  S
Zn109       O117   1.962       .  S
Zn109       O120   1.956       .  S
Zn109       O121   1.942       .  S
O111        C123   1.293       .  A
O112        C124   1.276       .  A
O113        C125   1.272       .  A
O114        C123   1.276       .  A
O115        C125   1.294       .  A
O116        C124   1.272       .  A
O117        C126   1.265       .  A
O118        C127   1.275       .  A
O119        C126   1.271       .  A
O120        C127   1.264       .  A
O121        C128   1.264       .  A
O122        C128   1.284       .  A
C123        C630   1.491   1_554  S
C124        C406   1.487       .  S
C126        C389   1.470       .  S
C127        C375   1.482       .  S
C128        C221   1.487       .  S
C129        C207   1.489       .  S
C129        C130   1.409       .  A
C129        C134   1.402       .  A
C130        C131   1.405       .  A
C130        H135   1.078       .  S
C131        C266   1.491       .  S
C131        C132   1.405       .  A
C132        C133   1.403       .  A
C132        H136   1.083       .  S
C133        C235   1.488       .  S
C133        C134   1.403       .  A
C134        H137   1.083       .  S
C138        C193   1.494       .  S
C138        C139   1.405       .  A
C138        C143   1.407       .  A
C139        C140   1.402       .  A
C139        H144   1.085       .  S
C140        C249   1.493       .  S
C140        C141   1.410       .  A
C141        C142   1.405       .  A
C141        H145   1.080       .  S
C142        C224   1.497       .  S
C142        C143   1.410       .  A
C143        H146   1.088       .  S
Zn147       O151   1.937       .  S
Zn147       O152   2.027       .  S
Zn147       O156   2.025       .  S
Zn147       O163   1.976       .  S
Zn148       O151   1.949       .  S
Zn148       O153   2.081       .  S
Zn148       O155   2.103       .  S
Zn148       O159   2.031       .  S
Zn149       O151   1.954       .  S
Zn149       O154   2.045       .  S
Zn149       O157   2.063       .  S
Zn149       O160   2.016       .  S
Zn150       O151   1.963       .  S
Zn150       O158   1.982       .  S
Zn150       O161   1.992       .  S
Zn150       O162   1.991       .  S
O152        C164   1.275       .  A
O153        C165   1.287       .  A
O154        C166   1.277       .  A
O155        C164   1.286       .  A
O156        C166   1.274       .  A
O157        C165   1.281       .  A
O158        C167   1.267       .  A
O159        C168   1.274       .  A
O160        C167   1.273       .  A
O161        C168   1.270       .  A
O162        C169   1.270       .  A
O163        C169   1.268       .  A
C164        C717   1.495   1_554  S
C165        C192   1.494       .  S
C166        C196   1.516       .  S
C167        C308   1.476       .  S
C168        C490   1.495       .  S
C169        C291   1.478   1_554  S
Zn170       O174   1.948       .  S
Zn170       O175   2.022       .  S
Zn170       O179   2.084       .  S
Zn170       O186   2.106       .  S
Zn171       O174   1.955       .  S
Zn171       O176   1.985       .  S
Zn171       O178   1.974       .  S
Zn171       O182   1.987       .  S
Zn172       O174   1.948       .  S
Zn172       O177   2.040       .  S
Zn172       O180   2.009       .  S
Zn172       O183   2.016       .  S
Zn173       O174   1.935       .  S
Zn173       O181   2.021       .  S
Zn173       O184   1.997       .  S
Zn173       O185   2.023       .  S
O175        C187   1.274       .  A
O176        C188   1.267       .  A
O177        C189   1.277       .  A
O178        C187   1.268       .  A
O179        C189   1.287       .  A
O180        C188   1.273       .  A
O181        C190   1.276       .  A
O182        C191   1.269       .  A
O183        C190   1.274       .  A
O184        C191   1.269       .  A
O185        C192   1.276       .  A
O186        C192   1.287       .  A
C187        C364   1.473       .  S
C188        C350   1.475       .  S
C189        C692   1.490       .  S
C190        C210   1.495       .  S
C191        C336   1.480       .  S
C193        C194   1.408       .  A
C193        C198   1.409       .  A
C194        C195   1.417       .  A
C194        C199   1.453       .  S
C195        C196   1.428       .  A
C195        C202   1.451       .  S
C196        C197   1.423       .  A
C197        C198   1.417       .  A
C197        C200   1.450       .  S
C198        C201   1.451       .  S
C199        N206   1.157   1_554  T
C200        N205   1.157       .  T
C201        N203   1.157       .  T
C202        N204   1.157   1_554  T
C207        C208   1.412       .  A
C207        C212   1.408       .  A
C208        C209   1.415       .  A
C208        C213   1.450       .  S
C209        C210   1.417       .  A
C209        C216   1.451       .  S
C210        C211   1.421       .  A
C211        C212   1.410       .  A
C211        C214   1.452       .  S
C212        C215   1.451       .  S
C213        N220   1.157       .  T
C214        N219   1.157       .  T
C215        N217   1.157       .  T
C216        N218   1.157       .  T
C221        C222   1.413       .  A
C221        C226   1.412       .  A
C222        C223   1.414       .  A
C222        C227   1.450       .  S
C223        C224   1.412       .  A
C223        C230   1.450       .  S
C224        C225   1.414       .  A
C225        C226   1.417       .  A
C225        C228   1.449       .  S
C226        C229   1.450       .  S
C227        N234   1.157   1_554  T
C228        N233   1.157       .  T
C229        N231   1.157       .  T
C230        N232   1.157   1_554  T
C235        C236   1.409       .  A
C235        C240   1.406       .  A
C236        C237   1.415       .  A
C236        C241   1.452       .  S
C237        C238   1.425       .  A
C237        C244   1.451       .  S
C238        C239   1.426       .  A
C239        C240   1.413       .  A
C239        C242   1.451       .  S
C240        C243   1.452       .  S
C241        N248   1.157       .  T
C242        N247   1.158       .  T
C243        N245   1.157       .  T
C244        N246   1.158       .  T
C249        C250   1.415       .  A
C249        C254   1.411       .  A
C250        C251   1.417       .  A
C250        C255   1.450       .  S
C251        C252   1.412       .  A
C251        C258   1.450       .  S
C252        C253   1.414       .  A
C253        C254   1.410       .  A
C253        C256   1.451       .  S
C254        C257   1.451       .  S
C255        N262   1.157       .  T
C256        N261   1.157   1_554  T
C257        N259   1.157   1_554  T
C258        N260   1.157       .  T
C263        C264   1.412       .  A
C263        C268   1.413       .  A
C264        C265   1.414       .  A
C264        C269   1.451       .  S
C265        C266   1.413       .  A
C265        C272   1.449       .  S
C266        C267   1.411       .  A
C267        C268   1.412       .  A
C267        C270   1.450       .  S
C268        C271   1.451       .  S
C269        N276   1.157       .  T
C270        N275   1.157       .  T
C271        N273   1.157       .  T
C272        N274   1.157       .  T
C277        C278   1.415       .  A
C277        C282   1.413       .  A
C278        C279   1.412       .  A
C278        C283   1.451       .  S
C279        C280   1.413       .  A
C279        C286   1.451       .  S
C280        C281   1.415       .  A
C281        C282   1.407       .  A
C281        C284   1.451       .  S
C282        C285   1.453       .  S
C283        N290   1.157       .  T
C284        N289   1.157       .  T
C285        N287   1.157       .  T
C286        N288   1.157       .  T
C291        C296   1.420   1_556  A
C291        C820   1.415       .  A
C292        C293   1.403       .  A
C292        C819   1.412       .  A
C292        C297   1.454       .  S
C293        C294   1.417       .  A
C293        C300   1.455       .  S
C294        C295   1.410       .  A
C295        C824   1.411       .  A
C295        C826   1.451       .  S
C296        C823   1.408   1_554  A
C296        C299   1.452       .  S
C297        N304   1.158       .  T
C298        C823   1.451       .  S
C298        N303   1.157       .  T
C299        N301   1.157       .  T
C300        N302   1.158       .  T
C305        C306   1.408       .  A
C305        C310   1.411       .  A
C306        C307   1.407       .  A
C306        C311   1.451       .  S
C307        C308   1.414       .  A
C307        C314   1.452       .  S
C308        C309   1.411       .  A
C309        C310   1.408       .  A
C309        C312   1.450       .  S
C310        C313   1.451       .  S
C311        N318   1.157       .  T
C312        N317   1.157       .  T
C313        N315   1.157       .  T
C314        N316   1.158       .  T
C319        C320   1.411       .  A
C319        C324   1.410       .  A
C320        C321   1.410       .  A
C320        C325   1.451       .  S
C321        C322   1.412       .  A
C321        C328   1.451       .  S
C322        C323   1.413       .  A
C323        C324   1.409       .  A
C323        C326   1.451   1_655  S
C324        C327   1.451       .  S
C325        N332   1.157       .  T
C326        N331   1.157       .  T
C327        N329   1.157       .  T
C328        N330   1.157       .  T
C333        C334   1.415       .  A
C333        C338   1.407       .  A
C334        C335   1.405       .  A
C334        C339   1.454       .  S
C335        C336   1.413       .  A
C335        C342   1.453       .  S
C336        C337   1.418       .  A
C337        C338   1.409       .  A
C337        C340   1.452       .  S
C338        C341   1.451       .  S
C339        N346   1.157       .  T
C340        N345   1.157       .  T
C341        N343   1.157       .  T
C342        N344   1.158       .  T
C347        C348   1.413       .  A
C347        C352   1.408   1_554  A
C348        C349   1.407   1_554  A
C348        C353   1.451       .  S
C349        C878   1.408       .  A
C349        C356   1.451       .  S
C350        C351   1.413       .  A
C350        C877   1.411       .  A
C351        C880   1.406       .  A
C351        C354   1.453       .  S
C352        C879   1.407       .  A
C352        C883   1.449       .  S
C353        N360   1.157       .  T
C354        N359   1.158       .  T
C355        C880   1.452       .  S
C355        N357   1.157       .  T
C356        N358   1.157       .  T
C361        C362   1.423       .  A
C361        C366   1.422       .  A
C362        C363   1.409       .  A
C362        C367   1.451       .  S
C363        C364   1.407       .  A
C363        C370   1.454       .  S
C364        C365   1.407       .  A
C365        C366   1.408       .  A
C365        C368   1.453       .  S
C366        C369   1.452       .  S
C367        N374   1.157       .  T
C368        N373   1.157       .  T
C369        N371   1.157       .  T
C370        N372   1.157       .  T
C375        C904   1.413       .  A
C375        C908   1.419       .  A
C376        C377   1.408       .  A
C376        C903   1.412       .  A
C376        C909   1.451       .  S
C377        C378   1.410       .  A
C377        C384   1.451       .  S
C378        C379   1.411       .  A
C379        C380   1.404       .  A
C379        C382   1.453       .  S
C380        C903   1.416       .  A
C380        C911   1.455       .  S
C381        C904   1.451       .  S
C381        N388   1.158   1_565  T
C382        N387   1.157       .  T
C383        C908   1.454       .  S
C383        N385   1.158       .  T
C384        N386   1.157       .  T
C389        C390   1.411       .  A
C389        C394   1.415       .  A
C390        C391   1.404       .  A
C390        C395   1.453       .  S
C391        C392   1.411       .  A
C391        C398   1.453       .  S
C392        C393   1.405       .  A
C393        C394   1.405       .  A
C393        C396   1.451       .  S
C394        C397   1.452       .  S
C395        N402   1.158       .  T
C396        N401   1.157       .  T
C397        N399   1.157       .  T
C398        N400   1.157       .  T
C403        C404   1.412       .  A
C403        C408   1.408       .  A
C404        C405   1.413       .  A
C404        C409   1.451       .  S
C405        C406   1.414       .  A
C405        C412   1.451       .  S
C406        C407   1.418       .  A
C407        C408   1.408       .  A
C407        C410   1.452       .  S
C408        C411   1.452       .  S
C409        N416   1.157       .  T
C410        N415   1.157       .  T
C411        N413   1.157       .  T
C412        N414   1.157       .  T
C417        C418   1.413       .  A
C417        C422   1.413       .  A
C418        C419   1.406       .  A
C418        C423   1.451       .  S
C419        C420   1.407       .  A
C419        C426   1.451       .  S
C420        C421   1.410       .  A
C421        C422   1.408       .  A
C421        C424   1.452       .  S
C422        C425   1.451       .  S
C423        N430   1.157       .  T
C424        N429   1.157       .  T
C425        N427   1.157       .  T
C426        N428   1.157       .  T
C431        C432   1.419       .  A
C431        C436   1.411       .  A
C432        C433   1.410       .  A
C432        C437   1.453       .  S
C433        C962   1.414   1_554  A
C433        C440   1.451   1_655  S
C434        C435   1.424       .  A
C434        C961   1.415       .  A
C435        C964   1.409       .  A
C435        C438   1.452       .  S
C436        C963   1.410   1_554  A
C436        C967   1.451   1_554  S
C437        N444   1.158   1_655  T
C438        N443   1.157       .  T
C439        C964   1.451       .  S
C439        N441   1.157       .  T
C440        N442   1.158       .  T
C445        C446   1.408       .  A
C445        C450   1.404       .  A
C446        C447   1.410       .  A
C446        C451   1.453       .  S
C447        C448   1.423       .  A
C447        C454   1.452       .  S
C448        C449   1.425       .  A
C449        C450   1.408       .  A
C449        C452   1.452   1_565  S
C450        C453   1.453       .  S
C451        N458   1.157       .  T
C452        N457   1.157       .  T
C453        N455   1.157       .  T
C454        N456   1.158       .  T
C459        C460   1.410       .  A
C459        C464   1.409       .  A
C460        C461   1.408       .  A
C460        C465   1.452       .  S
C461        C990   1.415       .  A
C461        C468   1.450       .  S
C462        C463   1.418       .  A
C462        C989   1.410       .  A
C463        C992   1.407       .  A
C463        C466   1.454       .  S
C464        C991   1.408       .  A
C464        C467   1.453       .  S
C465        N472   1.157       .  T
C466        N471   1.158       .  T
C467        N997   1.157       .  T
C468        N470   1.157       .  T
N469        C995   1.157       .  T
C473        C474   1.405       .  A
C473        C478   1.410       .  A
C474        C475   1.407       .  A
C474        C479   1.450       .  S
C475        C476   1.416       .  A
C475        C482   1.452       .  S
C476        C477   1.412       .  A
C477        C478   1.403       .  A
C477        C480   1.452       .  S
C478        C481   1.453       .  S
C479        N486   1.157       .  T
C480        N485   1.157       .  T
C481        N483   1.157       .  T
C482        N484   1.157       .  T
C487        C488   1.418       .  A
C487        C492   1.420       .  A
C488        C489   1.411       .  A
C488        C493   1.453       .  S
C489        C490   1.418       .  A
C489        C496   1.453       .  S
C490        C491   1.415       .  A
C491        C492   1.412       .  A
C491        C494   1.453       .  S
C492        C495   1.452       .  S
C493        N500   1.158       .  T
C494        N499   1.158       .  T
C495        N497   1.158       .  T
C496        N498   1.158       .  T
C501        C502   1.416       .  A
C501        C506   1.413       .  A
C502        C503   1.410       .  A
C502        C507   1.451       .  S
C503        C504   1.409       .  A
C503        C510   1.451       .  S
C504        C505   1.414       .  A
C505        C506   1.405       .  A
C505        C508   1.454       .  S
C506        C509   1.453       .  S
C507        N514   1.157       .  T
C508        N513   1.158       .  T
C509        N511   1.158       .  T
C510        N512   1.157       .  T
C515        C516   1.408   1_554  A
C515        C520   1.414       .  A
C516       C1045   1.409       .  A
C516        C521   1.450       .  S
C517        C518   1.412       .  A
C517       C1044   1.408       .  A
C517        C524   1.452       .  S
C518       C1047   1.406       .  A
C519        C520   1.404       .  A
C519       C1046   1.405   1_554  A
C519        C522   1.450       .  S
C520        C523   1.452       .  S
C521        N528   1.157       .  T
C522        N527   1.157       .  T
C523        N525   1.157       .  T
C524        N526   1.157       .  T
C529        N530   1.365       .  A
C529        N534   1.366       .  A
C529       C1015   1.492       .  S
N530        C531   1.355       .  A
C531        N532   1.345       .  A
C531       C1043   1.472       .  S
N532        C533   1.346       .  A
C533        N534   1.358       .  A
C533       C1032   1.474       .  S
C535        N536   1.361       .  A
C535        N540   1.363       .  A
C535        C973   1.486       .  S
N536        C537   1.356       .  A
C537        N538   1.346       .  A
C537       C1001   1.466       .  S
N538        C539   1.349       .  A
C539        N540   1.359       .  A
C539        C987   1.473       .  S
C541        N542   1.362       .  A
C541        N546   1.358       .  A
C541        C931   1.474       .  S
N542        C543   1.361       .  A
C543        N544   1.353       .  A
C543        C959   1.491       .  S
N544        C545   1.347       .  A
C545        N546   1.351       .  A
C545        C948   1.464       .  S
C547        N548   1.364       .  A
C547        N552   1.364       .  A
C547        C889   1.504       .  S
N548        C549   1.356       .  A
C549        N550   1.345       .  A
C549        C920   1.469       .  S
N550        C551   1.347       .  A
C551        N552   1.358       .  A
C551        C906   1.468       .  S
C553        N554   1.363       .  A
C553        N558   1.360       .  A
C553        C847   1.474       .  S
N554        C555   1.359       .  A
C555        N556   1.348       .  A
C555        C875   1.469       .  S
N556        C557   1.347       .  A
C557        N558   1.355       .  A
C557        C861   1.472       .  S
C559        N560   1.361       .  A
C559        N564   1.363       .  A
C559        C805   1.477       .  S
N560        C561   1.354       .  A
C561        N562   1.345       .  A
C561        C822   1.465       .  S
N562        C563   1.346       .  A
C563        N564   1.356       .  A
C563        C833   1.466       .  S
Zn565       O569   1.952       .  S
Zn565       O570   2.006       .  S
Zn565       O574   2.032       .  S
Zn565       O581   2.024   1_455  S
Zn566       O569   1.957       .  S
Zn566       O571   2.040       .  S
Zn566       O573   2.009       .  S
Zn566       O577   2.036       .  S
Zn567       O569   1.959       .  S
Zn567       O572   2.118       .  S
Zn567       O575   2.114       .  S
Zn567       O578   2.080   1_455  S
Zn568       O569   1.927   1_655  S
Zn568       O576   1.951       .  S
Zn568       O579   1.969       .  S
Zn568       O580   1.974       .  S
O570        C582   1.273       .  A
O571        C583   1.278       .  A
O572        C584   1.290       .  A
O573        C582   1.274       .  A
O574        C584   1.275       .  A
O575        C583   1.290       .  A
O576        C585   1.266       .  A
O577        C586   1.273   1_455  A
O578        C585   1.280       .  A
O579        C586   1.266       .  A
O580        C587   1.266       .  A
O581        C587   1.274       .  A
C582        C808   1.480       .  S
C584        C608   1.498       .  S
C585        C791   1.482       .  S
C586        C962   1.496       .  S
C587        C945   1.473       .  S
Zn588       O592   1.961       .  S
Zn588       O593   2.032       .  S
Zn588       O597   2.012       .  S
Zn588       O604   2.041       .  S
Zn589       O592   1.922       .  S
Zn589       O594   1.959       .  S
Zn589       O596   1.969       .  S
Zn589       O600   1.945       .  S
Zn590       O592   1.962       .  S
Zn590       O595   2.022       .  S
Zn590       O598   2.034       .  S
Zn590       O601   2.031       .  S
Zn591       O592   1.969       .  S
Zn591       O599   2.124       .  S
Zn591       O602   2.091       .  S
Zn591       O603   2.118       .  S
O593        C605   1.274       .  A
O594        C606   1.264       .  A
O595        C607   1.275       .  A
O596        C605   1.265       .  A
O597        C607   1.274       .  A
O598        C606   1.273       .  A
O599        C608   1.291       .  A
O600        C609   1.264       .  A
O601        C608   1.276       .  A
O602        C609   1.280       .  A
O603        C610   1.290       .  A
O604        C610   1.277       .  A
C605        C990   1.488       .  S
C606       C1004   1.474       .  S
C607        C850   1.475   1_455  S
C609        C780   1.480       .  S
Zn611       O615   1.939       .  S
Zn611       O616   2.017       .  S
Zn611       O620   2.030       .  S
Zn611       O627   1.998       .  S
Zn612       O615   1.939       .  S
Zn612       O617   2.036       .  S
Zn612       O619   2.037       .  S
Zn612       O623   1.986       .  S
Zn613       O615   1.950       .  S
Zn613       O618   2.118       .  S
Zn613       O621   2.121       .  S
Zn613       O624   2.054       .  S
Zn614       O615   1.956       .  S
Zn614       O622   1.988       .  S
Zn614       O625   2.004       .  S
Zn614       O626   1.991       .  S
O616        C628   1.274       .  A
O617        C629   1.276       .  A
O618        C630   1.290       .  A
O619        C628   1.276       .  A
O620        C630   1.275       .  A
O621        C629   1.289       .  A
O622        C631   1.272       .  A
O623        C632   1.269       .  A
O624        C631   1.279       .  A
O625        C632   1.271       .  A
O626        C633   1.267       .  A
O627        C633   1.270       .  A
C628        C766   1.515       .  S
C629        C653   1.493       .  S
C631        C976   1.494   1_545  S
C632       C1029   1.480       .  S
C633       C1046   1.467       .  S
Zn634       O638   1.956       .  S
Zn634       O639   2.136       .  S
Zn634       O643   2.148       .  S
Zn634       O650   2.112   1_545  S
Zn635       O638   1.949       .  S
Zn635       O640   2.014       .  S
Zn635       O642   2.020       .  S
Zn635       O646   2.022   1_545  S
Zn636       O638   1.931       .  S
Zn636       O641   2.011       .  S
Zn636       O644   1.994       .  S
Zn636       O647   2.023   1_545  S
Zn637       O638   1.904   1_565  S
Zn637       O645   1.968       .  S
Zn637       O648   1.959       .  S
Zn637       O649   1.930       .  S
O639        C651   1.292       .  A
O640        C652   1.274       .  A
O641        C653   1.273       .  A
O642        C651   1.274       .  A
O643        C653   1.293       .  A
O644        C652   1.273       .  A
O645        C654   1.265       .  A
O646        C655   1.273       .  A
O647        C654   1.271       .  A
O648        C655   1.265       .  A
O649        C656   1.264       .  A
O650        C656   1.284       .  A
C652        C934   1.482       .  S
C654        C917   1.474       .  S
C655        C903   1.476       .  S
C656        C749   1.483       .  S
C657        C735   1.490       .  S
C657        C658   1.405       .  A
C657        C662   1.405       .  A
C658        C659   1.403       .  A
C658        H663   1.082       .  S
C659        C794   1.490       .  S
C659        C660   1.407       .  A
C660        C661   1.403       .  A
C660        H664   1.081       .  S
C661        C763   1.492       .  S
C661        C662   1.406       .  A
C662        H665   1.082       .  S
C666        C721   1.492       .  S
C666        C667   1.406       .  A
C666        C671   1.405       .  A
C667        C668   1.404       .  A
C667        H672   1.086       .  S
C668        C777   1.489       .  S
C668        C669   1.406       .  A
C669        C670   1.403       .  A
C669        H673   1.079       .  S
C670        C752   1.492       .  S
C670        C671   1.407       .  A
C671        H674   1.089       .  S
Zn675       O679   1.937       .  S
Zn675       O680   2.015       .  S
Zn675       O684   2.012       .  S
Zn675       O691   1.979       .  S
Zn676       O679   1.953       .  S
Zn676       O681   2.085       .  S
Zn676       O683   2.096       .  S
Zn676       O687   2.028       .  S
Zn677       O679   1.954       .  S
Zn677       O682   2.040       .  S
Zn677       O685   2.054       .  S
Zn677       O688   2.012       .  S
Zn678       O679   1.962       .  S
Zn678       O686   1.975       .  S
Zn678       O689   1.989       .  S
Zn678       O690   2.006       .  S
O680        C692   1.273       .  A
O681        C693   1.287       .  A
O682        C694   1.276       .  A
O683        C692   1.286       .  A
O684        C694   1.273       .  A
O685        C693   1.279       .  A
O686        C695   1.266       .  A
O687        C696   1.274       .  A
O688        C695   1.273       .  A
O689        C696   1.271       .  A
O690        C697   1.270       .  A
O691        C697   1.268       .  A
C693        C720   1.494       .  S
C694        C724   1.515       .  S
C695        C836   1.473       .  S
C696       C1018   1.495       .  S
C697        C819   1.478       .  S
Zn698       O702   1.950       .  S
Zn698       O703   2.033       .  S
Zn698       O707   2.083       .  S
Zn698       O714   2.103       .  S
Zn699       O702   1.960       .  S
Zn699       O704   1.979       .  S
Zn699       O706   1.983       .  S
Zn699       O710   1.985       .  S
Zn700       O702   1.951       .  S
Zn700       O705   2.058       .  S
Zn700       O708   2.010       .  S
Zn700       O711   2.030       .  S
Zn701       O702   1.944       .  S
Zn701       O709   2.029       .  S
Zn701       O712   1.997       .  S
Zn701       O713   2.028       .  S
O703        C715   1.274       .  A
O704        C716   1.266       .  A
O705        C717   1.279       .  A
O706        C715   1.268       .  A
O707        C717   1.287       .  A
O708        C716   1.273       .  A
O709        C718   1.276       .  A
O710        C719   1.269       .  A
O711        C718   1.276       .  A
O712        C719   1.270       .  A
O713        C720   1.276       .  A
O714        C720   1.287       .  A
C715        C892   1.477       .  S
C716        C878   1.470       .  S
C718        C738   1.507       .  S
C719        C864   1.478       .  S
C721        C722   1.408       .  A
C721        C726   1.409       .  A
C722        C723   1.415       .  A
C722        C727   1.451       .  S
C723        C724   1.427       .  A
C723        C730   1.452       .  S
C724        C725   1.423       .  A
C725        C726   1.415       .  A
C725        C728   1.450       .  S
C726        C729   1.451       .  S
C727        N734   1.157       .  T
C728        N733   1.157       .  T
C729        N731   1.157       .  T
C730        N732   1.158       .  T
C735        C736   1.409       .  A
C735        C740   1.408       .  A
C736        C737   1.415       .  A
C736        C741   1.451       .  S
C737        C738   1.421       .  A
C737        C744   1.451       .  S
C738        C739   1.425       .  A
C739        C740   1.414       .  A
C739        C742   1.451       .  S
C740        C743   1.452       .  S
C741        N748   1.157   1_556  T
C742        N747   1.158       .  T
C743        N745   1.157       .  T
C744        N746   1.157       .  T
C749        C750   1.415       .  A
C749        C754   1.411       .  A
C750        C751   1.412       .  A
C750        C755   1.451       .  S
C751        C752   1.411       .  A
C751        C758   1.451       .  S
C752        C753   1.414       .  A
C753        C754   1.415       .  A
C753        C756   1.450       .  S
C754        C757   1.450       .  S
C755        N762   1.157       .  T
C756        N761   1.157       .  T
C757        N759   1.157       .  T
C758        N760   1.157       .  T
C763        C764   1.409       .  A
C763        C768   1.407       .  A
C764        C765   1.417       .  A
C764        C769   1.451       .  S
C765        C766   1.425       .  A
C765        C772   1.451       .  S
C766        C767   1.426       .  A
C767        C768   1.414       .  A
C767        C770   1.452       .  S
C768        C771   1.452       .  S
C769        N776   1.157       .  T
C770        N775   1.158   1_556  T
C771        N773   1.157   1_556  T
C772        N774   1.158       .  T
C777        C778   1.412       .  A
C777        C782   1.412       .  A
C778        C779   1.414       .  A
C778        C783   1.450       .  S
C779        C780   1.412       .  A
C779        C786   1.450       .  S
C780        C781   1.413       .  A
C781        C782   1.412       .  A
C781        C784   1.451       .  S
C782        C785   1.451       .  S
C783        N790   1.157       .  T
C784        N789   1.157       .  T
C785        N787   1.157       .  T
C786        N788   1.157       .  T
C791        C792   1.412       .  A
C791        C796   1.414       .  A
C792        C793   1.414       .  A
C792        C797   1.451       .  S
C793        C794   1.414       .  A
C793        C800   1.450       .  S
C794        C795   1.411       .  A
C795        C796   1.410       .  A
C795        C798   1.451       .  S
C796        C799   1.452       .  S
C797        N804   1.157       .  T
C798        N803   1.157   1_556  T
C799        N801   1.157   1_556  T
C800        N802   1.157       .  T
C805        C806   1.414       .  A
C805        C810   1.410       .  A
C806        C807   1.409       .  A
C806        C811   1.452       .  S
C807        C808   1.412       .  A
C807        C814   1.452       .  S
C808        C809   1.415       .  A
C809        C810   1.406       .  A
C809        C812   1.450       .  S
C810        C813   1.453       .  S
C811        N818   1.157       .  T
C812        N817   1.156       .  T
C813        N815   1.157       .  T
C814        N816   1.157       .  T
C819        C824   1.416       .  A
C820        C821   1.401       .  A
C820        C825   1.453       .  S
C821        C822   1.411       .  A
C821        C828   1.454       .  S
C822        C823   1.405       .  A
C824        C827   1.451       .  S
C825        N832   1.157       .  T
C826        N831   1.157       .  T
C827        N829   1.157       .  T
C828        N830   1.157       .  T
C833        C834   1.409       .  A
C833        C838   1.410       .  A
C834        C835   1.406       .  A
C834        C839   1.452       .  S
C835        C836   1.413       .  A
C835        C842   1.453       .  S
C836        C837   1.411       .  A
C837        C838   1.407       .  A
C837        C840   1.451       .  S
C838        C841   1.451       .  S
C839        N846   1.157       .  T
C840        N845   1.157       .  T
C841        N843   1.157       .  T
C842        N844   1.158       .  T
C847        C848   1.412       .  A
C847        C852   1.409       .  A
C848        C849   1.409       .  A
C848        C853   1.451       .  S
C849        C850   1.409       .  A
C849        C856   1.450       .  S
C850        C851   1.413       .  A
C851        C852   1.409       .  A
C851        C854   1.450   1_655  S
C852        C855   1.451       .  S
C853        N860   1.157       .  T
C854        N859   1.157       .  T
C855        N857   1.157       .  T
C856        N858   1.157       .  T
C861        C862   1.415       .  A
C861        C866   1.407       .  A
C862        C863   1.405       .  A
C862        C867   1.454       .  S
C863        C864   1.412       .  A
C863        C870   1.453       .  S
C864        C865   1.418       .  A
C865        C866   1.408       .  A
C865        C868   1.452       .  S
C866        C869   1.451       .  S
C867        N874   1.157       .  T
C868        N873   1.157       .  T
C869        N871   1.157       .  T
C870        N872   1.158       .  T
C875        C876   1.411       .  A
C875        C880   1.410       .  A
C876        C877   1.409       .  A
C876        C881   1.450       .  S
C877        C884   1.451       .  S
C878        C879   1.412       .  A
C879        C882   1.452       .  S
C881        N888   1.157       .  T
C882        N887   1.158       .  T
C883        N885   1.157       .  T
C884        N886   1.157       .  T
C889        C890   1.426       .  A
C889        C894   1.424       .  A
C890        C891   1.411       .  A
C890        C895   1.451       .  S
C891        C892   1.407       .  A
C891        C898   1.454       .  S
C892        C893   1.407       .  A
C893        C894   1.411       .  A
C893        C896   1.452       .  S
C894        C897   1.452       .  S
C895        N902   1.158   1_556  T
C896        N901   1.157       .  T
C897        N899   1.157       .  T
C898        N900   1.157       .  T
C904        C905   1.409   1_554  A
C905        C906   1.409       .  A
C905        C912   1.450       .  S
C906        C907   1.410   1_556  A
C907        C908   1.405       .  A
C907        C910   1.453   1_554  S
C909        N916   1.157   1_565  T
C910        N915   1.157       .  T
C911        N913   1.158       .  T
C912        N914   1.157       .  T
C917        C918   1.412       .  A
C917        C922   1.415       .  A
C918        C919   1.406       .  A
C918        C923   1.452       .  S
C919        C920   1.412       .  A
C919        C926   1.453       .  S
C920        C921   1.407       .  A
C921        C922   1.408       .  A
C921        C924   1.450       .  S
C922        C925   1.451       .  S
C923        N930   1.158       .  T
C924        N929   1.157       .  T
C925        N927   1.157       .  T
C926        N928   1.157       .  T
C931        C932   1.411       .  A
C931        C936   1.409       .  A
C932        C933   1.411       .  A
C932        C937   1.451       .  S
C933        C934   1.415       .  A
C933        C940   1.451       .  S
C934        C935   1.416       .  A
C935        C936   1.404       .  A
C935        C938   1.453       .  S
C936        C939   1.453       .  S
C937        N944   1.157       .  T
C938        N943   1.157       .  T
C939        N941   1.157       .  T
C940        N942   1.158       .  T
C945        C946   1.411       .  A
C945        C950   1.413       .  A
C946        C947   1.405       .  A
C946        C951   1.449       .  S
C947        C948   1.407       .  A
C947        C954   1.451       .  S
C948        C949   1.409       .  A
C949        C950   1.408       .  A
C949        C952   1.451       .  S
C950        C953   1.451       .  S
C951        N958   1.157       .  T
C952        N957   1.157       .  T
C953        N955   1.157       .  T
C954        N956   1.157       .  T
C959        C960   1.415       .  A
C959        C964   1.409       .  A
C960        C961   1.409       .  A
C960        C965   1.452       .  S
C961        C968   1.450   1_655  S
C962        C963   1.422       .  A
C963        C966   1.453       .  S
C965        N972   1.157   1_655  T
C966        N971   1.157       .  T
C967        N969   1.158       .  T
C968        N970   1.157       .  T
C973        C974   1.416       .  A
C973        C978   1.410       .  A
C974        C975   1.414       .  A
C974        C979   1.451       .  S
C975        C976   1.415       .  A
C975        C982   1.451       .  S
C976        C977   1.420       .  A
C977        C978   1.409       .  A
C977        C980   1.451   1_565  S
C978        C981   1.453       .  S
C979        N986   1.157       .  T
C980        N985   1.157       .  T
C981        N983   1.157       .  T
C982        N984   1.157       .  T
C987        C988   1.412   1_556  A
C987        C992   1.411   1_556  A
C988        C989   1.409       .  A
C988        C993   1.450   1_554  S
C989        C996   1.451       .  S
C990        C991   1.421       .  A
C991        C994   1.453       .  S
C992        C995   1.453       .  S
C993       N1000   1.157       .  T
C994        N999   1.158       .  T
C996        N998   1.157       .  T
C1001      C1002   1.406       .  A
C1001      C1006   1.411       .  A
C1002      C1003   1.409       .  A
C1002      C1007   1.450       .  S
C1003      C1004   1.414       .  A
C1003      C1010   1.449       .  S
C1004      C1005   1.412       .  A
C1005      C1006   1.405       .  A
C1005      C1008   1.453       .  S
C1006      C1009   1.453       .  S
C1007      N1014   1.157       .  T
C1008      N1013   1.157       .  T
C1009      N1011   1.157       .  T
C1010      N1012   1.157       .  T
C1015      C1016   1.415       .  A
C1015      C1020   1.416       .  A
C1016      C1017   1.409       .  A
C1016      C1021   1.453       .  S
C1017      C1018   1.419       .  A
C1017      C1024   1.453       .  S
C1018      C1019   1.418       .  A
C1019      C1020   1.413       .  A
C1019      C1022   1.453       .  S
C1020      C1023   1.452       .  S
C1021      N1028   1.157       .  T
C1022      N1027   1.158       .  T
C1023      N1025   1.158       .  T
C1024      N1026   1.158       .  T
C1029      C1030   1.418       .  A
C1029      C1034   1.413       .  A
C1030      C1031   1.412       .  A
C1030      C1035   1.451       .  S
C1031      C1032   1.407       .  A
C1031      C1038   1.450       .  S
C1032      C1033   1.413       .  A
C1033      C1034   1.403       .  A
C1033      C1036   1.454       .  S
C1034      C1037   1.453       .  S
C1035      N1042   1.157       .  T
C1036      N1041   1.157       .  T
C1037      N1039   1.157       .  T
C1038      N1040   1.157       .  T
C1043      C1044   1.410       .  A
C1043      C1048   1.414       .  A
C1044      C1049   1.451       .  S
C1045      C1046   1.414       .  A
C1045      C1052   1.452       .  S
C1047      C1048   1.407       .  A
C1047      C1050   1.450       .  S
C1048      C1051   1.451       .  S
C1049      N1056   1.158       .  T
C1050      N1055   1.157       .  T
C1051      N1053   1.157       .  T
C1052      N1054   1.157       .  T
