geometry optimzed in LAMMPS
_audit_creation_date              2020-11-30 
_audit_creation_method            'lammps2cif' 
_symmetry_space_group_name_H-M    'P1' 
_symmetry_Int_Tables_number       1 
_symmetry_cell_setting            triclinic 
loop_ 
_symmetry_equiv_pos_as_xyz 
  x,y,z 
_cell_length_a                    85.59171987 
_cell_length_b                    85.67068110740611 
_cell_length_c                    36.64895749558624 
_cell_angle_alpha                 90.031797756165 
_cell_angle_beta                  89.89131218983363 
_cell_angle_gamma                 122.36416671217798 
loop_ 
_atom_site_label 
_atom_site_type_symbol 
_atom_site_fract_x 
_atom_site_fract_y 
_atom_site_fract_z 
_atom_site_charge 
C1          C  0.16221501  0.50964045  0.73726057     0.86700
C2          C  0.15292279  0.49750093  0.77120520    -0.53500
C3          C  0.15201233  0.48110710  0.77107516     0.09600
C4          C  0.16111456  0.47845016  0.73749666     0.20600
C5          C  0.18146700  0.51190400  0.73651259    -0.54300
C6          C  0.18086414  0.49561614  0.73772807     0.09700
C7          C  0.15227938  0.49719298  0.70418455    -0.53800
C8          C  0.15162496  0.48093649  0.70426101     0.10300
H9          H  0.14776153  0.50170334  0.79381714     0.14800
H10         H  0.16050993  0.46517137  0.73776998     0.00600
H11         H  0.19466331  0.52484945  0.73610632     0.15100
H12         H  0.14643073  0.50103051  0.68229483     0.14900
C13         C  0.33354477  0.51325420  0.75130589     0.86700
C14         C  0.31616935  0.51436821  0.74979212    -0.53500
C15         C  0.29975361  0.49764914  0.75171498     0.09600
C16         C  0.30216183  0.48114181  0.75427508     0.20600
C17         C  0.33115210  0.50180967  0.78573302    -0.54300
C18         C  0.31467416  0.48521792  0.78761824     0.09700
C19         C  0.33047754  0.49987357  0.71963226    -0.53800
C20         C  0.31417753  0.48319679  0.72139043     0.10300
H21         H  0.31685038  0.52735195  0.74728440     0.14800
H22         H  0.28903119  0.46744767  0.75485784     0.00600
H23         H  0.34168863  0.50638086  0.80667086     0.15100
H24         H  0.33981844  0.50263061  0.69723232     0.14900
C25         C  0.15779651  0.62726906  0.74453773     0.86700
C26         C  0.14661444  0.62815630  0.77661365    -0.53500
C27         C  0.14749114  0.64449243  0.77928012     0.09600
C28         C  0.15891532  0.65840731  0.74900578     0.20600
C29         C  0.14966406  0.63154973  0.71100227    -0.54300
C30         C  0.15047362  0.64786488  0.71331774     0.09700
C31         C  0.17744237  0.64464395  0.74798529    -0.53800
C32         C  0.17808921  0.66089520  0.75084551     0.10300
H33         H  0.13889133  0.61692048  0.79588156     0.14800
H34         H  0.15928867  0.67154549  0.75099491     0.00600
H35         H  0.14353420  0.62291965  0.68723827     0.15100
H36         H  0.18982960  0.64409621  0.74723752     0.14900
C37         C  0.33263979  0.80676809  0.74409007     0.86700
C38         C  0.31572033  0.78683787  0.74515680    -0.53500
C39         C  0.29900978  0.78529363  0.74309231     0.09600
C40         C  0.30065633  0.80411369  0.74186453     0.20600
C41         C  0.32988576  0.81577919  0.71025789    -0.54300
C42         C  0.31311314  0.81425056  0.70873073     0.09700
C43         C  0.32916453  0.81630224  0.77628221    -0.53800
C44         C  0.31248911  0.81476976  0.77501332     0.10300
H45         H  0.31702077  0.77499902  0.74837340     0.14800
H46         H  0.28726912  0.80324377  0.74188336     0.00600
H47         H  0.34044350  0.82292017  0.68942513     0.15100
H48         H  0.33860374  0.82389688  0.79830567     0.14900
C49         C  0.45525117  0.64094921  0.74756128     0.86700
C50         C  0.46739180  0.64504297  0.78174139    -0.53500
C51         C  0.48399167  0.66156983  0.78079892     0.09600
C52         C  0.48680833  0.67292606  0.74620308     0.20600
C53         C  0.45337100  0.65799897  0.74542635    -0.54300
C54         C  0.46986682  0.67470666  0.74544046     0.09700
C55         C  0.46773587  0.64349595  0.71498835    -0.53800
C56         C  0.48413857  0.66009640  0.71428897     0.10300
H57         H  0.46333213  0.63552240  0.80452714     0.14800
H58         H  0.50034621  0.68623836  0.74509296     0.00600
H59         H  0.44046082  0.65745561  0.74548373     0.15100
H60         H  0.46394061  0.63298346  0.69426684     0.14900
C61         C  0.45504680  0.81024251  0.74333199     0.86700
C62         C  0.46589645  0.81852764  0.70766930    -0.53500
C63         C  0.48294489  0.82082677  0.70695118     0.09600
C64         C  0.48746470  0.81386096  0.74164000     0.20600
C65         C  0.45433204  0.79178985  0.74678019    -0.54300
C66         C  0.47127823  0.79366657  0.74591620     0.09700
C67         C  0.46815616  0.82214431  0.77431459    -0.53800
C68         C  0.48515793  0.82432177  0.77326578     0.10300
H69         H  0.46019648  0.82176732  0.68461279     0.14800
H70         H  0.50121995  0.81544963  0.74079978     0.00600
H71         H  0.44190400  0.77820817  0.74885851     0.15100
H72         H  0.46419168  0.82820549  0.79559588     0.14900
C73         C  0.51264859  0.16623238  0.24816306     0.86700
C74         C  0.49933950  0.15515854  0.21682999    -0.53500
C75         C  0.48371346  0.15564186  0.21632829     0.09600
C76         C  0.48239958  0.16684523  0.24741584     0.20600
C77         C  0.51600322  0.18578244  0.24524819    -0.54300
C78         C  0.50019838  0.18613825  0.24471006     0.09700
C79         C  0.50057314  0.15832815  0.28305924    -0.53800
C80         C  0.48479790  0.15864515  0.28248154     0.10300
H81         H  0.50227991  0.14796466  0.19619225     0.14800
H82         H  0.46936988  0.16670374  0.24654726     0.00600
H83         H  0.52970446  0.19805756  0.24238707     0.15100
H84         H  0.50390373  0.15333225  0.30702124     0.14900
C85         C  0.63320694  0.16726160  0.23806392     0.86700
C86         C  0.63628649  0.15761485  0.20555472    -0.53500
C87         C  0.65235968  0.15750429  0.20649185     0.09600
C88         C  0.66453900  0.16868816  0.23954502     0.20600
C89         C  0.63578505  0.15819686  0.27177744    -0.54300
C90         C  0.65218553  0.15917016  0.27284410     0.09700
C91         C  0.65035497  0.18687445  0.23590990    -0.53800
C92         C  0.66667917  0.18774268  0.23721966     0.10300
H93         H  0.62716650  0.15221025  0.18239400     0.14800
H94         H  0.67783241  0.16984598  0.24279567     0.00600
H95         H  0.62520044  0.15101547  0.29254945     0.15100
H96         H  0.64973830  0.19910610  0.23229287     0.14900
C97         C  0.80404124  0.34498075  0.23402812     0.86700
C98         C  0.81450035  0.34433944  0.20036073    -0.53500
C99         C  0.81644459  0.32955363  0.19984644     0.09600
C100        C  0.80742245  0.31636059  0.23223138     0.20600
C101        C  0.78544837  0.32596144  0.23278200    -0.54300
C102        C  0.78720225  0.31098739  0.23181181     0.09700
C103        C  0.81397075  0.34333813  0.26727319    -0.53800
C104        C  0.81564008  0.32839183  0.26654170     0.10300
H105        H  0.81970370  0.35455556  0.17864470     0.14800
H106        H  0.80934020  0.30460411  0.23056165     0.00600
H107        H  0.77184729  0.32386161  0.23223729     0.15100
H108        H  0.81910460  0.35312427  0.28975257     0.14900
C109        C  0.79909070  0.46168946  0.25161700     0.86700
C110        C  0.80701803  0.47352775  0.28669014    -0.53500
C111        C  0.80624918  0.48901660  0.28679693     0.09600
C112        C  0.79806598  0.49170222  0.25202302     0.20600
C113        C  0.77954365  0.45809986  0.24836508    -0.54300
C114        C  0.77896938  0.47366976  0.24800050     0.09700
C115        C  0.81049751  0.47553983  0.22108520    -0.53800
C116        C  0.81027850  0.49138468  0.22142188     0.10300
H117        H  0.81363488  0.47100447  0.30899109     0.28000
H118        H  0.79757217  0.50438868  0.25266587     0.00600
H119        H  0.76715708  0.44433555  0.24659534     0.15100
H120        H  0.81806635  0.47290569  0.20078360     0.14900
C121        C  0.62777444  0.46047054  0.23688442     0.86700
C122        C  0.63207901  0.47207741  0.20155032    -0.53500
C123        C  0.64914817  0.48804312  0.20104815     0.09600
C124        C  0.66051200  0.49110479  0.23572039     0.20600
C125        C  0.64399807  0.45766860  0.24023621    -0.54300
C126        C  0.66109758  0.47352003  0.23919443     0.09700
C127        C  0.63077895  0.47422365  0.26714596    -0.53800
C128        C  0.64794432  0.48997732  0.26699839     0.10300
H129        H  0.62269864  0.46897878  0.17910225     0.14800
H130        H  0.67430943  0.50418541  0.23545366     0.00600
H131        H  0.64202701  0.44411141  0.24331589     0.15100
H132        H  0.62045917  0.47145939  0.28775455     0.14900
C133        C  0.50762628  0.33287833  0.24042798     0.86700
C134        C  0.49564975  0.32826089  0.27492474    -0.53500
C135        C  0.47917208  0.31171963  0.27344855     0.09600
C136        C  0.47605986  0.30095467  0.23790018     0.20600
C137        C  0.50948512  0.31593559  0.23651904    -0.54300
C138        C  0.49302875  0.29940903  0.23473964     0.09700
C139        C  0.49504494  0.33082641  0.20829311    -0.53800
C140        C  0.47850258  0.31427875  0.20723614     0.10300
H141        H  0.49978117  0.33736964  0.29841755     0.14800
H142        H  0.46266880  0.28743719  0.23697523     0.00600
H143        H  0.52221859  0.31616374  0.23713009     0.15100
H144        H  0.49898875  0.34152544  0.18791918     0.14900
In145      In  0.36658716  0.08961476  0.95687297     1.36900
C146        C  0.35751503  0.11481204  0.95740839     0.77800
O147        O  0.37488890  0.09781390  0.01496932    -0.60600
O148        O  0.39580481  0.10215072  0.97762322    -0.51600
C149        C  0.34729922  0.05392833  0.97389202     0.70500
O150        O  0.34066425  0.06394515  0.97699663    -0.46400
C151        C  0.36961031  0.08736163  0.88503618     0.75200
O152        O  0.34695738  0.09878423  0.97032266    -0.58300
O153        O  0.38335343  0.09357668  0.90615735    -0.48400
O154        O  0.37234234  0.11765640  0.94367915    -0.54700
C155        C  0.39175222  0.10387138  0.00991095     0.85300
O156        O  0.36363801  0.06217396  0.96194613    -0.56600
O157        O  0.35449646  0.08225789  0.90085366    -0.59900
In158      In  0.26611983  0.88122538  0.03487859     1.36900
C159        C  0.23106826  0.85407746  0.04095521     0.77800
O160        O  0.26372625  0.87158963  0.97682173    -0.60600
O161        O  0.28501546  0.87349010  0.00947239    -0.51600
C162        C  0.28099481  0.91683810  0.01953155     0.70500
O163        O  0.26386119  0.90506693  0.01713462    -0.46400
C164        C  0.27350322  0.88288046  0.10572808     0.75200
O165        O  0.23562650  0.86972820  0.02852984    -0.58300
O166        O  0.27952373  0.87636090  0.08269135    -0.48400
O167        O  0.24439728  0.85244550  0.04929071    -0.54700
C168        C  0.27713439  0.86939679  0.97878838     0.85300
O169        O  0.29037408  0.91010976  0.02886830    -0.56600
O170        O  0.26437087  0.88912146  0.09228092    -0.59900
In171      In  0.87881494  0.27674329  0.94354539     1.36900
C172        C  0.84966075  0.24232829  0.94654291     0.77800
O173        O  0.87265240  0.27796962  0.00262870    -0.60600
O174        O  0.87012582  0.29551445  0.96602964    -0.51600
C175        C  0.91458667  0.28999361  0.95585002     0.70500
O176        O  0.90216680  0.27316079  0.96000326    -0.46400
C177        C  0.87845745  0.28146466  0.87167650     0.75200
O178        O  0.86571656  0.24640151  0.95514699    -0.58300
O179        O  0.87752273  0.29202846  0.89440986    -0.48400
O180        O  0.84873432  0.25577509  0.93571593    -0.54700
C181        C  0.86831420  0.28976424  0.99843971     0.85300
O182        O  0.90861629  0.30002732  0.94652506    -0.56600
O183        O  0.88048315  0.26923812  0.88577569    -0.59900
In184      In  0.08594243  0.36524388  0.03038874     1.36900
C185        C  0.11068937  0.35560400  0.03115401     0.77800
O186        O  0.09563506  0.37555172  0.97375000    -0.60600
O187        O  0.10012887  0.39520151  0.01450524    -0.51600
C188        C  0.05040225  0.34856845  0.01182322     0.70500
O189        O  0.05958076  0.34110031  0.00651847    -0.46400
C190        C  0.08181504  0.36606821  0.10191273     0.75200
O191        O  0.09482130  0.34530164  0.01726983    -0.58300
O192        O  0.08972808  0.38051287  0.08253747    -0.48400
O193        O  0.11354031  0.37040071  0.04482412    -0.54700
C194        C  0.10235644  0.39229035  0.98171194     0.85300
O195        O  0.05969980  0.36453978  0.02529006    -0.56600
O196        O  0.07616694  0.35126068  0.08448929    -0.59900
In197      In  0.69420635  0.09127625  0.94183117     1.36900
C198        C  0.72794292  0.12113094  0.94884099     0.77800
O199        O  0.70167121  0.08832803  0.88487224    -0.60600
O200        O  0.67921700  0.09193466  0.89188014    -0.51600
C201        C  0.68237051  0.05623246  0.95617050     0.70500
O202        O  0.69916573  0.06909986  0.95790181    -0.46400
C203        C  0.67831470  0.09852838  0.99599690     0.75200
O204        O  0.72447263  0.10507743  0.95491703    -0.58300
O205        O  0.67491482  0.09960540  0.96287737    -0.48400
O206        O  0.71428867  0.12174073  0.93818941    -0.54700
C207        C  0.68943052  0.09002601  0.86984383     0.85300
O208        O  0.67171080  0.06145249  0.94662445    -0.56600
O209        O  0.68960584  0.09358611  0.00103006    -0.59900
In210      In  0.60160774  0.88641287  0.03269819     1.36900
C211        C  0.60586937  0.85806393  0.02958650     0.77800
O212        O  0.61320788  0.89073326  0.08883404    -0.60600
O213        O  0.58477287  0.88141454  0.08334736    -0.51600
C214        C  0.62361281  0.92227957  0.02016434     0.70500
O215        O  0.62830406  0.91101094  0.01202971    -0.46400
C216        C  0.57783984  0.87696401  0.97817575     0.75200
O217        O  0.61901878  0.87440077  0.02262948    -0.58300
O218        O  0.57404194  0.87920535  0.01034102    -0.48400
O219        O  0.59087187  0.85653192  0.03849728    -0.54700
C220        C  0.59803320  0.88542230  0.10460855     0.85300
O221        O  0.60780867  0.91513809  0.03435972    -0.56600
O222        O  0.59375990  0.87974481  0.97413626    -0.59900
In223      In  0.08632876  0.69480819  0.03881606     1.36900
C224        C  0.11397681  0.73003633  0.03915682     0.77800
O225        O  0.07768092  0.69438761  0.09656087    -0.60600
O226        O  0.09602723  0.68533364  0.08640442    -0.51600
C227        C  0.05100759  0.68206399  0.02517992     0.70500
O228        O  0.06364918  0.69879033  0.02030572    -0.46400
C229        C  0.09325960  0.67994396  0.98192822     0.75200
O230        O  0.09738506  0.72519193  0.03414794    -0.58300
O231        O  0.08969945  0.67277192  0.01334809    -0.48400
O232        O  0.11632669  0.71682527  0.04311723    -0.54700
C233        C  0.08699854  0.68828842  0.10961642     0.85300
O234        O  0.05648034  0.67200699  0.03730455    -0.56600
O235        O  0.09309352  0.69451266  0.98011963    -0.59900
In236      In  0.87908120  0.60612387  0.95835425     1.36900
C237        C  0.85438979  0.61592391  0.95591199     0.77800
O238        O  0.88876507  0.61782247  0.90255747    -0.60600
O239        O  0.87283306  0.58856841  0.90830393    -0.51600
C240        C  0.91486310  0.62299548  0.97479360     0.70500
O241        O  0.90591887  0.63080606  0.97894805    -0.46400
C242        C  0.86582097  0.58152815  0.01226215     0.75200
O243        O  0.87082851  0.62705219  0.96637449    -0.58300
O244        O  0.86588388  0.57714563  0.97939969    -0.48400
O245        O  0.85075729  0.59999756  0.94814204    -0.54700
C246        C  0.88158592  0.60228002  0.88719780     0.85300
O247        O  0.90529668  0.60676421  0.96260289    -0.56600
O248        O  0.87249575  0.59854804  0.01715212    -0.59900
In249      In  0.70414715  0.60946976  0.95077016     1.36900
C250        C  0.73820129  0.61661452  0.95939053     0.77800
O251        O  0.69860707  0.60046157  0.00924253    -0.60600
O252        O  0.68555042  0.57999187  0.96833308    -0.51600
C253        C  0.68907490  0.62958924  0.96149415     0.70500
O254        O  0.70567539  0.63547368  0.96974430    -0.46400
C255        C  0.70097678  0.60549743  0.87861594     0.75200
O256        O  0.73468494  0.62916753  0.96171686    -0.58300
O257        O  0.69010872  0.59297794  0.90051477    -0.48400
O258        O  0.72444854  0.60079107  0.95217894    -0.54700
C259        C  0.68831448  0.58345726  0.00199057     0.85300
O260        O  0.68040607  0.61344831  0.94875014    -0.56600
O261        O  0.71361178  0.61999501  0.89393074    -0.59900
In262      In  0.60240030  0.70889213  0.03688101     1.36900
C263        C  0.61005343  0.74330859  0.03839648     0.77800
O264        O  0.59413536  0.70862122  0.97877758    -0.60600
O265        O  0.57332762  0.69042336  0.01578219    -0.51600
C266        C  0.62174564  0.69389895  0.01891505     0.70500
O267        O  0.62829348  0.71102972  0.01586584    -0.46400
C268        C  0.59944087  0.70226567  0.10832635     0.75200
O269        O  0.62151019  0.73951133  0.02643355    -0.58300
O270        O  0.58557154  0.69523339  0.08736773    -0.48400
O271        O  0.59533111  0.72967175  0.05092631    -0.54700
C272        C  0.57721978  0.69662854  0.98358721     0.85300
O273        O  0.60526687  0.68462938  0.03017127    -0.56600
O274        O  0.61473148  0.71258115  0.09246035    -0.59900
In275      In  0.36294045  0.26529557  0.94596890     1.36900
C276        C  0.35811956  0.23202398  0.95135862     0.77800
O277        O  0.35131480  0.25550731  0.89010948    -0.60600
O278        O  0.37731597  0.28069834  0.89411145    -0.51600
C279        C  0.34118120  0.27792812  0.96142519     0.70500
O280        O  0.33598891  0.26118958  0.96575666    -0.46400
C281        C  0.38855252  0.27993282  0.99845544     0.75200
O282        O  0.34544005  0.23481429  0.95967202    -0.58300
O283        O  0.39253601  0.28381297  0.96510082    -0.48400
O284        O  0.37268858  0.24611883  0.93955349    -0.54700
C285        C  0.36474446  0.26879393  0.87341699     0.85300
O286        O  0.35744445  0.28799089  0.94931817    -0.56600
O287        O  0.37144788  0.26947417  0.00450909    -0.59900
In288      In  0.26285132  0.36471194  0.03975455     1.36900
C289        C  0.22894433  0.35860435  0.03881267     0.77800
O290        O  0.25774257  0.35498945  0.09786828    -0.60600
O291        O  0.27736964  0.38338666  0.08745220    -0.51600
C292        C  0.27613451  0.34347418  0.02540014     0.70500
O293        O  0.25909233  0.33748300  0.02323903    -0.46400
C294        C  0.27600456  0.38870354  0.98470209     0.75200
O295        O  0.23190427  0.34595289  0.03159991    -0.58300
O296        O  0.28292606  0.39284339  0.01630575    -0.48400
O297        O  0.24323186  0.37380575  0.04720628    -0.54700
C298        C  0.26868717  0.37084463  0.11094293     0.85300
O299        O  0.28616260  0.36028819  0.03396400    -0.56600
O300        O  0.26305144  0.37204927  0.98116810    -0.59900
In301      In  0.36508220  0.09141269  0.53837704     1.36900
C302        C  0.35490987  0.11577382  0.53228494     0.77800
O303        O  0.35308055  0.08249388  0.59433062    -0.60600
O304        O  0.38230118  0.09838667  0.58949742    -0.51600
C305        C  0.34675718  0.05540899  0.52429792     0.70500
O306        O  0.33932874  0.06475200  0.52182661    -0.46400
C307        C  0.39008511  0.10357384  0.48481687     0.75200
O308        O  0.34455126  0.09915096  0.52247661    -0.58300
O309        O  0.39440058  0.10426414  0.51801100    -0.48400
O310        O  0.37016432  0.11963220  0.54549172    -0.54700
C311        C  0.36844425  0.08973903  0.61035941     0.85300
O312        O  0.36351468  0.06467132  0.53368044    -0.56600
O313        O  0.37306174  0.09654544  0.47968123    -0.59900
In314      In  0.26958688  0.88446595  0.45157276     1.36900
C315        C  0.23526988  0.85528492  0.44933778     0.77800
O316        O  0.26328676  0.88791948  0.39429330    -0.60600
O317        O  0.28555899  0.88416105  0.40266565    -0.51600
C318        C  0.28288161  0.91969838  0.46701335     0.70500
O319        O  0.26581874  0.90748972  0.46827103    -0.46400
C320        C  0.28173204  0.87399847  0.50780581     0.75200
O321        O  0.23893394  0.87098338  0.45961209    -0.58300
O322        O  0.28705701  0.87457670  0.47534875    -0.48400
O323        O  0.24925108  0.85463382  0.44141421    -0.54700
C324        C  0.27564350  0.88613531  0.37994291     0.85300
O325        O  0.29298793  0.91385339  0.45717881    -0.56600
O326        O  0.27056772  0.87922447  0.51119634    -0.59900
In327      In  0.87701574  0.27677326  0.52522747     1.36900
C328        C  0.84796358  0.24249829  0.52071128     0.77800
O329        O  0.88032325  0.27084512  0.58307880    -0.60600
O330        O  0.87411423  0.29135286  0.57393301    -0.51600
C331        C  0.91259058  0.28915757  0.51404325     0.70500
O332        O  0.90007895  0.27220898  0.51345033    -0.46400
C333        C  0.86801545  0.29014720  0.46886480     0.75200
O334        O  0.86400442  0.24677339  0.51147253    -0.58300
O335        O  0.86996970  0.29649101  0.50081580    -0.48400
O336        O  0.84703336  0.25568594  0.53324185    -0.54700
C337        C  0.87709031  0.28229211  0.59701648     0.85300
O338        O  0.90670251  0.29964535  0.51967803    -0.56600
O339        O  0.87147283  0.27765579  0.46591110    -0.59900
In340      In  0.08343012  0.36197925  0.44759399     1.36900
C341        C  0.10897917  0.35335221  0.44630234     0.77800
O342        O  0.07449723  0.34956486  0.39200025    -0.60600
O343        O  0.08760820  0.37869702  0.39710441    -0.51600
C344        C  0.04778653  0.34301220  0.46528122     0.70500
O345        O  0.05768206  0.33621716  0.46834532    -0.46400
C346        C  0.09757828  0.38788656  0.49932521     0.75200
O347        O  0.09305148  0.34254566  0.45953421    -0.58300
O348        O  0.09687705  0.39138942  0.46616681    -0.48400
O349        O  0.11164605  0.36838032  0.43444006    -0.54700
C350        C  0.08019830  0.36479857  0.37627478     0.85300
O351        O  0.05620765  0.35935851  0.45339493    -0.56600
O352        O  0.09067944  0.37096501  0.50584539    -0.59900
In353      In  0.69686107  0.08846812  0.52451035     1.36900
C354        C  0.73115080  0.11758718  0.52121485     0.77800
O355        O  0.69528735  0.09463371  0.46570401    -0.60600
O356        O  0.67751917  0.09648137  0.50312227    -0.51600
C357        C  0.68438890  0.05303951  0.51293887     0.70500
O358        O  0.70139424  0.06530164  0.51442592    -0.46400
C359        C  0.69178012  0.08859499  0.59600936     0.75200
O360        O  0.72692572  0.10191101  0.50959721    -0.58300
O361        O  0.68138253  0.08974092  0.57325012    -0.48400
O362        O  0.71784420  0.11817582  0.53428564    -0.54700
C363        C  0.68302708  0.09835732  0.47052791     0.85300
O364        O  0.67382976  0.05900570  0.51623654    -0.56600
O365        O  0.70398214  0.08647121  0.58209989    -0.59900
In366      In  0.60231312  0.88145565  0.45076807     1.36900
C367        C  0.60839374  0.85418023  0.45721020     0.77800
O368        O  0.59405073  0.87665375  0.50934581    -0.60600
O369        O  0.57319174  0.86998770  0.47027963    -0.51600
C370        C  0.62310155  0.91707808  0.46780331     0.70500
O371        O  0.62967366  0.90695303  0.46624767    -0.46400
C372        C  0.59860133  0.88170479  0.37884812     0.75200
O373        O  0.62053430  0.87070862  0.46523489    -0.58300
O374        O  0.58572620  0.87842966  0.40054630    -0.48400
O375        O  0.59344027  0.85184327  0.44555331    -0.54700
C376        C  0.57722744  0.87058898  0.50363211     0.85300
O377        O  0.60629602  0.90915970  0.45917788    -0.56600
O378        O  0.61350959  0.88571613  0.39400413    -0.59900
In379      In  0.08771490  0.69862701  0.45448719     1.36900
C380        C  0.11480916  0.73380135  0.45214210     0.77800
O381        O  0.09742140  0.70009282  0.51210626    -0.60600
O382        O  0.09527005  0.67913821  0.47770092    -0.51600
C383        C  0.05190231  0.68508779  0.46657063     0.70500
O384        O  0.06368531  0.70211736  0.46301215    -0.46400
C385        C  0.08734712  0.69211268  0.38321090     0.75200
O386        O  0.10012650  0.72842873  0.46995721    -0.58300
O387        O  0.09208200  0.68466702  0.40677762    -0.48400
O388        O  0.11578948  0.72113847  0.43705141    -0.54700
C389        C  0.09930986  0.68654144  0.50887913     0.85300
O390        O  0.05855161  0.67505677  0.46540208    -0.56600
O391        O  0.08224255  0.70223320  0.39661306    -0.59900
In392      In  0.88105984  0.60704201  0.54181751     1.36900
C393        C  0.85410323  0.61362463  0.54448371     0.77800
O394        O  0.87095232  0.59824895  0.48507353    -0.60600
O395        O  0.86908453  0.57815031  0.52170557    -0.51600
C396        C  0.91618387  0.62596610  0.51986325     0.70500
O397        O  0.90710515  0.63359284  0.52423660    -0.46400
C398        C  0.88349033  0.60355247  0.61305300     0.75200
O399        O  0.86954086  0.62486575  0.52963578    -0.58300
O400        O  0.87779870  0.59015742  0.59126623    -0.48400
O401        O  0.85283649  0.59941200  0.55755599    -0.54700
C402        C  0.86603467  0.58164433  0.48998344     0.85300
O403        O  0.90744848  0.60904943  0.52791874    -0.56600
O404        O  0.88873335  0.61882398  0.59786318    -0.59900
In405      In  0.70124638  0.60310740  0.53318401     1.36900
C406        C  0.73553589  0.61059892  0.53547556     0.77800
O407        O  0.70626421  0.61593154  0.58807821    -0.60600
O408        O  0.68782593  0.58673534  0.58424755    -0.51600
C409        C  0.68628487  0.62239684  0.51677566     0.70500
O410        O  0.70319714  0.62852092  0.51110163    -0.46400
C411        C  0.68799462  0.57869192  0.47873933     0.75200
O412        O  0.73206978  0.62279052  0.52738910    -0.58300
O413        O  0.68262902  0.57431181  0.51139429    -0.48400
O414        O  0.72150532  0.59480569  0.54187348    -0.54700
C415        C  0.69571175  0.60090160  0.60445235     0.85300
O416        O  0.67715620  0.60639984  0.53042144    -0.56600
O417        O  0.69989081  0.59567178  0.47426922    -0.59900
In418      In  0.59978055  0.70290401  0.45441213     1.36900
C419        C  0.60763351  0.73708011  0.46138083     0.77800
O420        O  0.61033857  0.71195655  0.39763715    -0.60600
O421        O  0.58328899  0.68815269  0.40397654    -0.51600
C422        C  0.61914320  0.68734290  0.46776717     0.70500
O423        O  0.62610546  0.70454613  0.47047267    -0.46400
C424        C  0.57485820  0.69056889  0.50817054     0.75200
O425        O  0.61974661  0.73315118  0.46683774    -0.58300
O426        O  0.57049752  0.68565938  0.47533629    -0.48400
O427        O  0.59214339  0.72379351  0.45082047    -0.54700
C428        C  0.59579563  0.69940462  0.38237168     0.85300
O429        O  0.60235604  0.67837491  0.45868435    -0.56600
O430        O  0.59205310  0.70089650  0.51338053    -0.59900
In431      In  0.36021983  0.26483895  0.52672586     1.36900
C432        C  0.35044690  0.22969278  0.52958834     0.77800
O433        O  0.36949547  0.26319314  0.47061148    -0.60600
O434        O  0.38942891  0.28361692  0.50649641    -0.51600
C435        C  0.34163854  0.28031531  0.50679608     0.70500
O436        O  0.33378615  0.26314767  0.51227306    -0.46400
C437        C  0.36353185  0.27186277  0.59824520     0.75200
O438        O  0.34113672  0.23462288  0.51182050    -0.58300
O439        O  0.37736971  0.27736809  0.57755937    -0.48400
O440        O  0.36434368  0.24267796  0.54561502    -0.54700
C441        C  0.38604255  0.27623133  0.47527049     0.85300
O442        O  0.35899086  0.28936151  0.51006050    -0.56600
O443        O  0.34821541  0.26333993  0.58191596    -0.59900
In444      In  0.26354242  0.37005741  0.45537001     1.36900
C445        C  0.22849749  0.36023128  0.46210663     0.77800
O446        O  0.26641857  0.37561761  0.51530491    -0.60600
O447        O  0.28018092  0.39859128  0.47972307    -0.51600
C448        C  0.27992738  0.35122536  0.46464518     0.70500
O449        O  0.26271143  0.34393124  0.46851635    -0.46400
C450        C  0.26700260  0.37600421  0.38381516     0.75200
O451        O  0.23323305  0.34859168  0.46427888    -0.58300
O452        O  0.27703132  0.38865310  0.40631863    -0.48400
O453        O  0.24160074  0.37660573  0.45621406    -0.54700
C454        C  0.27617837  0.39296459  0.51233450     0.85300
O455        O  0.28861073  0.36803387  0.45557496    -0.56600
O456        O  0.25590771  0.36052252  0.39808319    -0.59900
C457        C  0.30843938  0.29696574  0.51154082    -0.22200
C458        C  0.31420970  0.30885596  0.48139760     0.09700
C459        C  0.32859341  0.31087617  0.45895083     0.10100
C460        C  0.33713902  0.30117808  0.46764715    -0.17200
C461        C  0.33146044  0.28935273  0.49803132    -0.27600
C462        C  0.31692254  0.28726434  0.52035629     0.18500
C463        C  0.30561185  0.31977796  0.47532898     0.12400
C464        C  0.33482621  0.32319297  0.42583426    -0.11900
H465        H  0.34832064  0.30283222  0.45067733     0.12700
C466        C  0.31057552  0.27579029  0.55473248    -0.22800
H467        H  0.29752930  0.29563896  0.52895513     0.08300
C468        C  0.28800275  0.31192398  0.45926868     0.04700
C469        C  0.27993918  0.32249721  0.45650368    -0.20000
C470        C  0.28906133  0.34075500  0.46952493    -0.12300
C471        C  0.30667620  0.34851105  0.48611211     0.13400
C472        C  0.31479294  0.33798643  0.48821323    -0.22700
C473        C  0.27783508  0.29245039  0.44481770    -0.05800
H474        H  0.26649731  0.31652737  0.44375930     0.14900
C475        C  0.31697912  0.36733846  0.50378145    -0.16000
H476        H  0.32817693  0.34382640  0.50117773     0.09200
H477        H  0.29578335  0.26460482  0.55203568     0.07100
H478        H  0.31207025  0.28467459  0.57824279     0.08300
H479        H  0.31855009  0.26941573  0.56129698     0.07400
H480        H  0.34010533  0.33764934  0.43414910     0.02200
H481        H  0.32299792  0.31842964  0.40689877     0.02700
H482        H  0.34603845  0.32301382  0.41091950     0.06200
H483        H  0.26434481  0.28850552  0.43255191     0.05200
H484        H  0.27513420  0.28263697  0.46731307    -0.00600
H485        H  0.28631661  0.29116499  0.42349734     0.00900
H486        H  0.32039927  0.36599992  0.53236898     0.04600
H487        H  0.30897744  0.37403555  0.50519539     0.06500
H488        H  0.33005330  0.37651990  0.48869139     0.07400
C489        C  0.67314397  0.65429609  0.47379830    -0.22200
C490        C  0.66066345  0.65335222  0.49983609     0.09700
C491        C  0.65664112  0.64225999  0.53113888     0.10100
C492        C  0.66532145  0.63239850  0.53577875    -0.17200
C493        C  0.67775763  0.63319350  0.50962154    -0.27600
C494        C  0.68151759  0.64409779  0.47788371     0.18500
C495        C  0.65047101  0.66247035  0.49175526     0.12400
C496        C  0.64300329  0.64063550  0.55932170    -0.11900
H497        H  0.66237112  0.62399312  0.56000623     0.12700
C498        C  0.69323794  0.64448943  0.44669155    -0.22800
H499        H  0.67577468  0.66247164  0.44933445     0.08300
C500        C  0.65699246  0.68072864  0.50269902     0.04700
C501        C  0.64655957  0.68851667  0.49427560    -0.20000
C502        C  0.62974681  0.67844886  0.47509065    -0.12300
C503        C  0.62353268  0.66019752  0.46343390     0.13400
C504        C  0.63397948  0.65250080  0.47208906    -0.22700
C505        C  0.67494473  0.69194061  0.52313151    -0.05800
H506        H  0.65150917  0.70249981  0.50303660     0.14900
C507        C  0.60619015  0.64875357  0.44119543    -0.16000
H508        H  0.62927399  0.63854488  0.46346139     0.09200
H509        H  0.70563796  0.65865341  0.44365382     0.07100
H510        H  0.68509621  0.64063968  0.42104533     0.08300
H511        H  0.69778018  0.63467556  0.44992522     0.07400
H512        H  0.62923124  0.63493585  0.54655573     0.02200
H513        H  0.64775612  0.65444990  0.57091334     0.02700
H514        H  0.64143846  0.63134896  0.58209916     0.06200
H515        H  0.67809682  0.70601368  0.52956634     0.05200
H516        H  0.68645382  0.69336528  0.50634840    -0.00600
H517        H  0.67419327  0.68497406  0.54918674     0.00900
H518        H  0.60414796  0.63528648  0.43306894     0.04600
H519        H  0.60706387  0.65626801  0.41582649     0.06500
H520        H  0.59390012  0.64571444  0.45738577     0.07400
C521        C  0.80895165  0.60957252  0.57005193    -0.22200
C522        C  0.80689259  0.61880531  0.54082545     0.09700
C523        C  0.82102716  0.62766243  0.51446889     0.10100
C524        C  0.83675079  0.62650451  0.51726951    -0.17200
C525        C  0.83839906  0.61634137  0.54542715    -0.27600
C526        C  0.82443979  0.60808519  0.57266882     0.18500
C527        C  0.78906110  0.61756396  0.53710135     0.12400
C528        C  0.81923764  0.63787689  0.48298086    -0.11900
H529        H  0.84741307  0.63289723  0.49650427     0.12700
C530        C  0.82564402  0.59770398  0.60467704    -0.22800
H531        H  0.79799897  0.60291102  0.59022109     0.08300
C532        C  0.77384375  0.60209174  0.52029013     0.04700
C533        C  0.75669840  0.60050447  0.51991051    -0.20000
C534        C  0.75432418  0.61393347  0.53617200    -0.12300
C535        C  0.76957269  0.62938794  0.55345736     0.13400
C536        C  0.78685363  0.63110813  0.55319906    -0.22700
C537        C  0.77565489  0.58712987  0.50316400    -0.05800
H538        H  0.74499341  0.58860590  0.50695259     0.14900
C539        C  0.76802607  0.64367793  0.57431629    -0.16000
H540        H  0.79853259  0.64274214  0.56681038     0.09200
H541        H  0.82464525  0.58490190  0.59518631     0.07100
H542        H  0.81419628  0.59348263  0.62444882     0.08300
H543        H  0.83889096  0.60660541  0.61937318     0.07400
H544        H  0.81784665  0.64923496  0.49348032     0.02200
H545        H  0.80681983  0.62827138  0.46660839     0.02700
H546        H  0.83150275  0.64397914  0.46471540     0.06200
H547        H  0.76240097  0.57603090  0.49107923     0.05200
H548        H  0.77989090  0.58075426  0.52410312    -0.00600
H549        H  0.78621680  0.59310032  0.48115863     0.00900
H550        H  0.77276849  0.64436604  0.60280127     0.04600
H551        H  0.75374772  0.64062510  0.57587901     0.06500
H552        H  0.77696096  0.65741863  0.56133541     0.07400
C553        C  0.00296630  0.67518553  0.45836751    -0.22200
C554        C  0.99393805  0.66203580  0.48606523     0.09700
C555        C  0.00392149  0.65639154  0.50686533     0.10100
C556        C  0.02278386  0.66410219  0.49960291    -0.17200
C557        C  0.03194608  0.67740905  0.47213322    -0.27600
C558        C  0.02181378  0.68282932  0.45079356     0.18500
C559        C  0.97386948  0.65383235  0.49222797     0.12400
C560        C  0.99467128  0.64233525  0.53693475    -0.11900
H561        H  0.03049585  0.65987578  0.51577150     0.12700
C562        C  0.03000716  0.69585506  0.41876402    -0.22800
H563        H  0.99514409  0.67923131  0.44205242     0.08300
C564        C  0.96725678  0.66258422  0.51433006     0.04700
C565        C  0.94818719  0.65355633  0.52150876    -0.20000
C566        C  0.93563406  0.63594590  0.50716160    -0.12300
C567        C  0.94223905  0.62769966  0.48322328     0.13400
C568        C  0.96129696  0.63665742  0.47654015    -0.22700
C569        C  0.98040529  0.68118550  0.53112235    -0.05800
H570        H  0.94315390  0.65995094  0.53956915     0.14900
C571        C  0.92968536  0.60977792  0.46336003    -0.16000
H572        H  0.96642414  0.63017039  0.45895439     0.09200
H573        H  0.02960928  0.70839043  0.42416744     0.07100
H574        H  0.02171538  0.68892401  0.39395379     0.08300
H575        H  0.04442796  0.70017710  0.41250162     0.07400
H576        H  0.98328356  0.62907076  0.52550638     0.02200
H577        H  0.98893026  0.64742987  0.55758977     0.02700
H578        H  0.00451365  0.63964442  0.55087775     0.06200
H579        H  0.97301521  0.68602226  0.54800672     0.05200
H580        H  0.98803878  0.69153545  0.50928084    -0.00600
H581        H  0.99044637  0.68035799  0.54884296     0.00900
H582        H  0.93264845  0.61190816  0.43363908     0.04600
H583        H  0.91480854  0.60453207  0.46666050     0.06500
H584        H  0.93228862  0.59909506  0.47306063     0.07400
C585        C  0.62198052  0.82071682  0.49023597    -0.22200
C586        C  0.61432313  0.80740992  0.46251697     0.09700
C587        C  0.60500506  0.80963325  0.43327341     0.10100
C588        C  0.60374974  0.82528131  0.43215614    -0.17200
C589        C  0.61123375  0.83862115  0.45998808    -0.27600
C590        C  0.62028979  0.83616648  0.48977951     0.18500
C591        C  0.61446849  0.79027865  0.46621513     0.12400
C592        C  0.59597671  0.79523286  0.40372453    -0.11900
H593        H  0.59665039  0.82700198  0.40953716     0.12700
C594        C  0.62725278  0.84865592  0.52269790    -0.22800
H595        H  0.62866340  0.81862957  0.51315465     0.08300
C596        C  0.62822144  0.78826844  0.44978369     0.04700
C597        C  0.62632332  0.77091249  0.45044550    -0.20000
C598        C  0.61089786  0.75563294  0.46694848    -0.12300
C599        C  0.59779738  0.75804263  0.48549060     0.13400
C600        C  0.59969092  0.77530948  0.48456003    -0.22700
C601        C  0.64457071  0.80429932  0.43084708    -0.05800
H602        H  0.63640870  0.76905602  0.43654836     0.14900
C603        C  0.58175598  0.74282517  0.50687177    -0.16000
H604        H  0.58933468  0.77703250  0.49766729     0.09200
H605        H  0.64246976  0.85534785  0.52487941     0.07100
H606        H  0.62068952  0.84029722  0.54766786     0.08300
H607        H  0.62401579  0.85952573  0.52229051     0.07400
H608        H  0.58524311  0.78180174  0.41585112     0.02200
H609        H  0.60649060  0.79354365  0.38973690     0.02700
H610        H  0.58921207  0.79909563  0.38291257     0.06200
H611        H  0.65403495  0.80038687  0.41940352     0.05200
H612        H  0.65247734  0.81574053  0.45057910    -0.00600
H613        H  0.63978651  0.80927045  0.40811447     0.00900
H614        H  0.58211770  0.74762412  0.53519222     0.04600
H615        H  0.58205306  0.73009819  0.50901134     0.06500
H616        H  0.56853794  0.73932757  0.49395903     0.07400
C617        C  0.67614114  0.00484508  0.52047523    -0.22200
C618        C  0.66195401  0.99528324  0.49492555     0.09700
C619        C  0.65538884  0.00475117  0.47515946     0.10100
C620        C  0.66307488  0.02362631  0.48165788    -0.17200
C621        C  0.67723057  0.03326636  0.50735037    -0.27600
C622        C  0.68377308  0.02371382  0.52730282     0.18500
C623        C  0.65334976  0.97512111  0.49056935     0.12400
C624        C  0.64027597  0.99490117  0.44720482    -0.11900
H625        H  0.65805499  0.03093759  0.46648192     0.12700
C626        C  0.69796402  0.03252427  0.55729146    -0.22800
H627        H  0.68091824  0.99739722  0.53593946     0.08300
C628        C  0.66063285  0.96775506  0.46641503     0.04700
C629        C  0.65092535  0.94855444  0.46081484    -0.20000
C630        C  0.63405012  0.93669669  0.47860377    -0.12300
C631        C  0.62733913  0.94406148  0.50440223     0.13400
C632        C  0.63704190  0.96321502  0.50982586    -0.22700
C633        C  0.67832583  0.98021787  0.44586635    -0.05800
H634        H  0.65611187  0.94285912  0.44133483     0.14900
C635        C  0.61025254  0.93220460  0.52723259    -0.16000
H636        H  0.63171130  0.96895669  0.52888105     0.09200
H637        H  0.71044737  0.03238469  0.54966175     0.07100
H638        H  0.69212060  0.02449643  0.58288420     0.08300
H639        H  0.70221302  0.04691296  0.56343175     0.07400
H640        H  0.62751499  0.98361034  0.46046081     0.02200
H641        H  0.64473004  0.98895162  0.42570010     0.02700
H642        H  0.63691126  0.00439197  0.43389673     0.06200
H643        H  0.68202696  0.97224758  0.42783486     0.05200
H644        H  0.68982004  0.98818270  0.46545864    -0.00600
H645        H  0.67680097  0.98998332  0.42865408     0.00900
H646        H  0.61389297  0.93505142  0.55658802     0.04600
H647        H  0.60401830  0.91720428  0.52309545     0.06500
H648        H  0.59972053  0.93558460  0.52078843     0.07400
C649        C  0.15303074  0.35507023  0.42277184    -0.22200
C650        C  0.15529133  0.34711091  0.45405566     0.09700
C651        C  0.14116818  0.33917124  0.48065241     0.10100
C652        C  0.12553786  0.34039452  0.47637762    -0.17200
C653        C  0.12375358  0.34931895  0.44600541    -0.27600
C654        C  0.13725407  0.35589983  0.41793389     0.18500
C655        C  0.17319360  0.34858288  0.45936111     0.12400
C656        C  0.14274553  0.32965135  0.51365934    -0.11900
H657        H  0.11509484  0.33510424  0.49763017     0.12700
C658        C  0.13539672  0.36351397  0.38221357    -0.22800
H659        H  0.16376284  0.36082182  0.40204841     0.08300
C660        C  0.17775392  0.33722876  0.44030723     0.04700
C661        C  0.19567841  0.34060085  0.44353032    -0.20000
C662        C  0.20914651  0.35525164  0.46491285    -0.12300
C663        C  0.20423008  0.36601266  0.48543175     0.13400
C664        C  0.18635320  0.36261283  0.48211394    -0.22700
C665        C  0.16381314  0.32181727  0.41615345    -0.05800
H666        H  0.19945534  0.33235158  0.42790469     0.14900
C667        C  0.21732057  0.38099946  0.51146029    -0.16000
H668        H  0.18272009  0.37118756  0.49697919     0.09200
H669        H  0.13718004  0.35610978  0.35929543     0.07100
H670        H  0.14627429  0.37843928  0.38020916     0.08300
H671        H  0.12166511  0.36164870  0.37843533     0.07400
H672        H  0.15507834  0.33956000  0.52989675     0.02200
H673        H  0.14410561  0.31803137  0.50481936     0.02700
H674        H  0.13038241  0.32398323  0.53156364     0.06200
H675        H  0.16955012  0.31412332  0.40356800     0.05200
H676        H  0.15955018  0.32751876  0.39385731    -0.00600
H677        H  0.15146288  0.31193464  0.43249136     0.00900
H678        H  0.22017804  0.39456796  0.50177711     0.04600
H679        H  0.23063152  0.38188013  0.51474704     0.06500
H680        H  0.21083910  0.37817626  0.53891941     0.07400
C681        C  0.96531882  0.31960448  0.51252906    -0.22200
C682        C  0.96976353  0.30802090  0.49472948     0.09700
C683        C  0.95557400  0.29005651  0.48453759     0.10100
C684        C  0.93707390  0.28424044  0.49145960    -0.17200
C685        C  0.93245327  0.29601688  0.50834240    -0.27600
C686        C  0.94687850  0.31386941  0.51962729     0.18500
C687        C  0.98940451  0.31551031  0.48570509     0.12400
C688        C  0.95999503  0.27714577  0.46614073    -0.11900
H689        H  0.92616251  0.27050278  0.48313310     0.12700
C690        C  0.94314425  0.32690431  0.53975609    -0.22800
H691        H  0.97640730  0.33334145  0.52048497     0.08300
C692        C  0.99743556  0.32615773  0.45395808     0.04700
C693        C  0.01647718  0.33463575  0.44809272    -0.20000
C694        C  0.02773534  0.33272618  0.47316326    -0.12300
C695        C  0.01959812  0.32178232  0.50485885     0.13400
C696        C  0.00045463  0.31319862  0.51050771    -0.22700
C697        C  0.98591816  0.32871964  0.42646236    -0.05800
H698        H  0.02266611  0.34292772  0.42376378     0.14900
C699        C  0.03057252  0.31961562  0.53431338    -0.16000
H700        H  0.99419063  0.30515339  0.53507499     0.09200
H701        H  0.93546248  0.33100786  0.52195056     0.07100
H702        H  0.95614748  0.33976040  0.54810248     0.08300
H703        H  0.93502493  0.32013470  0.56487663     0.07400
H704        H  0.96886300  0.27470752  0.48426497     0.02200
H705        H  0.96744319  0.28331165  0.44012661     0.02700
H706        H  0.94728381  0.26357546  0.45992668     0.06200
H707        H  0.99436963  0.33736749  0.40303667     0.05200
H708        H  0.97944434  0.33559768  0.43953689    -0.00600
H709        H  0.97490326  0.31506854  0.41571483     0.00900
H710        H  0.02808940  0.32424713  0.56079582     0.04600
H711        H  0.04566619  0.32782654  0.52950428     0.06500
H712        H  0.02598724  0.30483557  0.53668080     0.07400
C713        C  0.77919957  0.15659027  0.49193012    -0.22200
C714        C  0.78441430  0.16795624  0.52278773     0.09700
C715        C  0.77285907  0.16202545  0.55373861     0.10100
C716        C  0.75581352  0.14520632  0.55243410    -0.17200
C717        C  0.75010984  0.13406966  0.52106708    -0.27600
C718        C  0.76212437  0.13968024  0.49049706     0.18500
C719        C  0.80102838  0.18681797  0.52078726     0.12400
C720        C  0.77843333  0.17355372  0.58794644    -0.11900
H721        H  0.74671021  0.14088934  0.57589998     0.12700
C722        C  0.75718816  0.12904600  0.45516563    -0.22800
H723        H  0.78818097  0.16134251  0.46819154     0.08300
C724        C  0.81893234  0.19044001  0.52657154     0.04700
C725        C  0.83409708  0.20876310  0.52518193    -0.20000
C726        C  0.83167766  0.22346337  0.51806919    -0.12300
C727        C  0.81370675  0.21960648  0.51043271     0.13400
C728        C  0.79860689  0.20134777  0.51264944    -0.22700
C729        C  0.82192387  0.17502728  0.53496171    -0.05800
H730        H  0.84784648  0.21166688  0.53069247     0.14900
C731        C  0.80982073  0.23404903  0.49838311    -0.16000
H732        H  0.78478506  0.19834297  0.50743324     0.09200
H733        H  0.76719805  0.12483559  0.44979009     0.07100
H734        H  0.75800795  0.13803687  0.43245804     0.08300
H735        H  0.74309597  0.11654583  0.45476307     0.07400
H736        H  0.78017735  0.18710821  0.58208075     0.02200
H737        H  0.79169707  0.17584663  0.59825270     0.02700
H738        H  0.76789105  0.16669101  0.60985253     0.06200
H739        H  0.83679415  0.18026675  0.53911309     0.05200
H740        H  0.81679999  0.16503872  0.51198827    -0.00600
H741        H  0.81430281  0.16776494  0.56021196     0.00900
H742        H  0.80167085  0.22946018  0.47272407     0.04600
H743        H  0.82241380  0.24763720  0.49235178     0.06500
H744        H  0.80162955  0.23578233  0.51969047     0.07400
C745        C  0.18287154  0.82249441  0.44162278    -0.22200
C746        C  0.18120512  0.80557281  0.44812401     0.09700
C747        C  0.19716045  0.80496626  0.45339867     0.10100
C748        C  0.21450406  0.82147672  0.45337738    -0.17200
C749        C  0.21635351  0.83861142  0.44758540    -0.27600
C750        C  0.20028965  0.83905264  0.44040200     0.18500
C751        C  0.16268669  0.78844746  0.44869708     0.12400
C752        C  0.19585507  0.78687178  0.45908468    -0.11900
H753        H  0.22671611  0.82098145  0.45832319     0.12700
C754        C  0.20075274  0.85627357  0.42954094    -0.22800
H755        H  0.17050202  0.82271279  0.43665423     0.08300
C756        C  0.15284488  0.78124296  0.48163251     0.04700
C757        C  0.13648744  0.76369192  0.48165338    -0.20000
C758        C  0.12996126  0.75328394  0.44947381    -0.12300
C759        C  0.13914456  0.76113262  0.41600831     0.13400
C760        C  0.15555600  0.77858580  0.41615945    -0.22700
C761        C  0.15993917  0.79186664  0.51680095    -0.05800
H762        H  0.12929026  0.75770386  0.50714101     0.14900
C763        C  0.13194731  0.75168404  0.37965526    -0.16000
H764        H  0.16304731  0.78439829  0.39084388     0.09200
H765        H  0.19414147  0.85990620  0.45117828     0.07100
H766        H  0.19289171  0.85363388  0.40378482     0.08300
H767        H  0.21479612  0.86830606  0.42416429     0.07400
H768        H  0.18921591  0.77780503  0.43501904     0.02200
H769        H  0.18747844  0.77984473  0.48377951     0.02700
H770        H  0.20969855  0.78888103  0.46272822     0.06200
H771        H  0.15058192  0.78423188  0.54006622     0.05200
H772        H  0.16104509  0.80533393  0.51415704    -0.00600
H773        H  0.17378917  0.79439812  0.52313795     0.00900
H774        H  0.13043756  0.76099605  0.36096744     0.04600
H775        H  0.11819590  0.73868421  0.38148350     0.06500
H776        H  0.14189447  0.74860638  0.36747384     0.07400
C777        C  0.33040519  0.14232658  0.53092746    -0.22200
C778        C  0.34545332  0.16016624  0.52336917     0.09700
C779        C  0.36293897  0.16293992  0.51611021     0.10100
C780        C  0.36522072  0.14796756  0.51842485    -0.17200
C781        C  0.35043386  0.13015333  0.52757505    -0.27600
C782        C  0.33259525  0.12719010  0.53311690     0.18500
C783        C  0.34330683  0.17617620  0.52623008     0.12400
C784        C  0.37927595  0.18179489  0.50632636    -0.11900
H785        H  0.37878850  0.15025681  0.51342758     0.12700
C786        C  0.31571650  0.10875141  0.54316306    -0.22800
H787        H  0.31699077  0.14031800  0.53640943     0.08300
C788        C  0.33804790  0.18260669  0.49617349     0.04700
C789        C  0.33938296  0.19966937  0.49869734    -0.20000
C790        C  0.34618236  0.21050613  0.53043127    -0.12300
C791        C  0.35027705  0.20338564  0.56133532     0.13400
C792        C  0.34867845  0.18625547  0.55882196    -0.22700
C793        C  0.33167986  0.17175647  0.46117559    -0.05800
H794        H  0.33606661  0.20500843  0.47515203     0.14900
C795        C  0.35634358  0.21370127  0.59708107    -0.16000
H796        H  0.35248429  0.18106052  0.58189514     0.09200
H797        H  0.30510225  0.10438657  0.52151368     0.07100
H798        H  0.30990965  0.11008849  0.56924795     0.08300
H799        H  0.31842523  0.09764018  0.54702245     0.07400
H800        H  0.38236983  0.19160540  0.52904689     0.02200
H801        H  0.37612019  0.18693045  0.48135514     0.02700
H802        H  0.39188309  0.18148747  0.50093890     0.06200
H803        H  0.32816078  0.17875045  0.44023136     0.05200
H804        H  0.31917305  0.15789289  0.46648562    -0.00600
H805        H  0.34277654  0.17009902  0.45001060     0.00900
H806        H  0.35745231  0.20535294  0.61890608     0.04600
H807        H  0.34611815  0.21711020  0.60611361     0.06500
H808        H  0.37016209  0.22657146  0.59413403     0.07400
C809        C  0.33260451  0.00495551  0.52022361    -0.22200
C810        C  0.31682459  0.99736989  0.49828579     0.09700
C811        C  0.31061854  0.00865308  0.48562025     0.10100
C812        C  0.32054392  0.02747629  0.49491885    -0.17200
C813        C  0.33665321  0.03530516  0.51632593    -0.27600
C814        C  0.34266992  0.02377463  0.52939264     0.18500
C815        C  0.30730379  0.97756967  0.48859089     0.12400
C816        C  0.29366672  0.00084040  0.46199817    -0.11900
H817        H  0.31584094  0.03617327  0.48488091     0.12700
C818        C  0.35943505  0.03094681  0.55345562    -0.22800
H819        H  0.33714390  0.99606084  0.52992282     0.08300
C820        C  0.31367411  0.97156939  0.45963823     0.04700
C821        C  0.30527613  0.95257911  0.45333595    -0.20000
C822        C  0.29064620  0.93941762  0.47532051    -0.12300
C823        C  0.28426279  0.94551085  0.50446815     0.13400
C824        C  0.29256816  0.96455731  0.51033594    -0.22700
C825        C  0.32936370  0.98523229  0.43549369    -0.05800
H826        H  0.31016671  0.94796587  0.43102180     0.14900
C827        C  0.26959774  0.93262786  0.53132422    -0.16000
H828        H  0.28795542  0.96931306  0.53290005     0.09200
H829        H  0.37208728  0.04117351  0.53830241     0.07100
H830        H  0.36137952  0.01971725  0.56245677     0.08300
H831        H  0.35786192  0.03742569  0.57827662     0.07400
H832        H  0.28146266  0.98972266  0.47696381     0.02200
H833        H  0.29567638  0.99503197  0.43662333     0.02700
H834        H  0.29075528  0.01156563  0.45420358     0.06200
H835        H  0.33251498  0.97822083  0.41387095     0.05200
H836        H  0.34204244  0.99373161  0.45205043    -0.00600
H837        H  0.32565671  0.99442895  0.42205818     0.00900
H838        H  0.27517586  0.93648303  0.55946987     0.04600
H839        H  0.26497500  0.91796317  0.52773916     0.06500
H840        H  0.25741432  0.93393643  0.52900609     0.07400
C841        C  0.27248369  0.39124509  0.20532424    -0.22200
C842        C  0.27337850  0.37837424  0.22723523     0.09700
C843        C  0.27343047  0.36350327  0.21084922     0.10100
C844        C  0.27217675  0.36161334  0.17274644    -0.17200
C845        C  0.27090701  0.37427763  0.15066330    -0.27600
C846        C  0.27099279  0.38930056  0.16723437     0.18500
C847        C  0.27210438  0.37948789  0.26732745     0.12400
C848        C  0.27463694  0.34956314  0.23366776    -0.11900
H849        H  0.27206577  0.35010822  0.16010485     0.12700
C850        C  0.26832628  0.40288128  0.14635868    -0.22800
H851        H  0.27210509  0.40244023  0.21820312     0.08300
C852        C  0.28780901  0.39033601  0.28936061     0.04700
C853        C  0.28571340  0.38976268  0.32751998    -0.20000
C854        C  0.26821661  0.37869258  0.34383020    -0.12300
C855        C  0.25235148  0.36904179  0.32132032     0.13400
C856        C  0.25458195  0.36924834  0.28344534    -0.22700
C857        C  0.30672067  0.40213188  0.27257864    -0.05800
H858        H  0.29783490  0.39739542  0.34467141     0.14900
C859        C  0.23282208  0.35883778  0.33595266    -0.16000
H860        H  0.24250358  0.36141336  0.26622156     0.09200
H861        H  0.28091469  0.41694898  0.14896212     0.07100
H862        H  0.25638992  0.40298127  0.15800533     0.08300
H863        H  0.26533462  0.39958593  0.11707149     0.07400
H864        H  0.26262013  0.34248807  0.25250342     0.02200
H865        H  0.28759735  0.35665858  0.24986649     0.02700
H866        H  0.27466555  0.33887939  0.21653632     0.06200
H867        H  0.31754120  0.40971464  0.29364037     0.05200
H868        H  0.30689140  0.41243224  0.25392942    -0.00600
H869        H  0.31022397  0.39332097  0.25686847     0.00900
H870        H  0.22476532  0.36365995  0.32148923     0.04600
H871        H  0.23198043  0.36127109  0.36535661     0.06500
H872        H  0.22617226  0.34378542  0.33113406     0.07400
C873        C  0.35824768  0.25672071  0.77196732    -0.22200
C874        C  0.36773189  0.27430363  0.75603458     0.09700
C875        C  0.37639105  0.29009862  0.77857146     0.10100
C876        C  0.37539460  0.28791299  0.81674507    -0.17200
C877        C  0.36563322  0.27027697  0.83290769    -0.27600
C878        C  0.35701889  0.25445237  0.81003488     0.18500
C879        C  0.36786779  0.27561250  0.71561193     0.12400
C880        C  0.38648424  0.30920724  0.76229453    -0.11900
H881        H  0.38199405  0.30005187  0.83405392     0.12700
C882        C  0.34688951  0.23509540  0.82529702    -0.22800
H883        H  0.35167595  0.24468008  0.75437085     0.08300
C884        C  0.38162519  0.27567048  0.69425710     0.04700
C885        C  0.38025485  0.27531838  0.65601055    -0.20000
C886        C  0.36510395  0.27427105  0.63855107    -0.12300
C887        C  0.35141690  0.27444952  0.66014643     0.13400
C888        C  0.35310404  0.27528703  0.69837029    -0.22700
C889        C  0.39742238  0.27550851  0.71187464    -0.05800
H890        H  0.39069168  0.27505616  0.63971195     0.14900
C891        C  0.33503022  0.27383717  0.64334549    -0.16000
H892        H  0.34256318  0.27516131  0.71505186     0.09200
H893        H  0.34206981  0.22453510  0.80339252     0.07100
H894        H  0.33449427  0.23234686  0.84071932     0.08300
H895        H  0.35620373  0.23333978  0.84349419     0.07400
H896        H  0.37680070  0.31105854  0.74552456     0.02200
H897        H  0.39799704  0.31119552  0.74476000     0.02700
H898        H  0.39238676  0.32006627  0.78369997     0.06200
H899        H  0.40690413  0.27542086  0.69125897     0.05200
H900        H  0.39194945  0.26296897  0.72909564    -0.00600
H901        H  0.40554511  0.28795916  0.72918674     0.00900
H902        H  0.32644493  0.27524824  0.66424094     0.04600
H903        H  0.32600953  0.26041806  0.62936748     0.06500
H904        H  0.33986324  0.28534461  0.62353991     0.07400
C905        C  0.30507194  0.28619335  0.00248220    -0.22200
C906        C  0.30950699  0.30251597  0.98453649     0.09700
C907        C  0.32383891  0.31033378  0.95843216     0.10100
C908        C  0.33358437  0.30173414  0.95109127    -0.17200
C909        C  0.32942806  0.28549293  0.96931576    -0.27600
C910        C  0.31484240  0.27754473  0.99525294     0.18500
C911        C  0.30007437  0.31207777  0.99570694     0.12400
C912        C  0.32907414  0.32795464  0.93884150    -0.11900
H913        H  0.34467248  0.30787192  0.93114455     0.12700
C914        C  0.30996028  0.26046358  0.01653589    -0.22800
H915        H  0.29417243  0.28044709  0.02282911     0.08300
C916        C  0.28381792  0.30870410  0.97851545     0.04700
C917        C  0.27592235  0.31872567  0.98960205    -0.20000
C918        C  0.28388234  0.33194747  0.01763216    -0.12300
C919        C  0.29968151  0.33455304  0.03604983     0.13400
C920        C  0.30774849  0.32486199  0.02425963    -0.22700
C921        C  0.27497017  0.29468511  0.94833921    -0.05800
H922        H  0.26375328  0.31656779  0.97566230     0.14900
C923        C  0.30807689  0.34678450  0.06910181    -0.16000
H924        H  0.32003594  0.32709945  0.03784159     0.09200
H925        H  0.29876964  0.25672254  0.03667899     0.07100
H926        H  0.32227058  0.26284997  0.03172213     0.08300
H927        H  0.30503536  0.24857868  0.99771045     0.07400
H928        H  0.33351249  0.33928001  0.95891130     0.02200
H929        H  0.31703438  0.32600867  0.92332645     0.02700
H930        H  0.34062131  0.33222183  0.91930785     0.06200
H931        H  0.26232897  0.29373356  0.93779526     0.05200
H932        H  0.27101475  0.28085468  0.95867450    -0.00600
H933        H  0.28483170  0.29856581  0.92532879     0.00900
H934        H  0.30955010  0.33884139  0.09130291     0.04600
H935        H  0.29951728  0.35174839  0.08046162     0.06500
H936        H  0.32199274  0.35882572  0.06209125     0.07400
C937        C  0.60993390  0.69847250  0.20804835    -0.22200
C938        C  0.59391089  0.69553571  0.22508799     0.09700
C939        C  0.57938496  0.69377368  0.20368172     0.10100
C940        C  0.58139838  0.69546351  0.16560093    -0.17200
C941        C  0.59774592  0.69919211  0.14840309    -0.27600
C942        C  0.61209524  0.70036746  0.16996018     0.18500
C943        C  0.59325737  0.69579082  0.26549350     0.12400
C944        C  0.56184737  0.69029361  0.22112510    -0.11900
H945        H  0.57033897  0.69443674  0.14927239     0.12700
C946        C  0.62960192  0.70336280  0.15322634    -0.22800
H947        H  0.62097857  0.69972267  0.22479309     0.08300
C948        C  0.58839353  0.68009309  0.28677823     0.04700
C949        C  0.58862375  0.68142228  0.32506059    -0.20000
C950        C  0.59377868  0.69815314  0.34231469    -0.12300
C951        C  0.59797162  0.71366968  0.32082744     0.13400
C952        C  0.59784402  0.71231232  0.28270902    -0.22700
C953        C  0.58310540  0.66205635  0.26905075    -0.05800
H954        H  0.58532361  0.66953656  0.34157865     0.14900
C955        C  0.60208552  0.73169930  0.33695946    -0.16000
H956        H  0.60128315  0.72424870  0.26619267     0.09200
H957        H  0.62613815  0.69247845  0.13263349     0.07100
H958        H  0.63868455  0.70273686  0.17400581     0.08300
H959        H  0.63759321  0.71718318  0.14018989     0.07400
H960        H  0.56502999  0.70186044  0.23972884     0.02200
H961        H  0.55523234  0.67721725  0.23695674     0.02700
H962        H  0.55178659  0.68909642  0.20045766     0.06200
H963        H  0.57956953  0.65111681  0.28960690     0.05200
H964        H  0.59480362  0.66390646  0.25230198    -0.00600
H965        H  0.57087996  0.65730752  0.25124816     0.00900
H966        H  0.61637574  0.74289950  0.32957784     0.04600
H967        H  0.60066311  0.73132475  0.36703166     0.06500
H968        H  0.59224018  0.73513281  0.32570223     0.07400
C969        C  0.68204554  0.58954801  0.78231927    -0.22200
C970        C  0.69733493  0.60219288  0.76133192     0.09700
C971        C  0.71381624  0.61564017  0.77868847     0.10100
C972        C  0.71457439  0.61624754  0.81692802    -0.17200
C973        C  0.69925774  0.60361595  0.83829054    -0.27600
C974        C  0.68276486  0.58998366  0.82059596     0.18500
C975        C  0.69578003  0.60098878  0.72111160     0.12400
C976        C  0.73064132  0.62920819  0.75683687    -0.11900
H977        H  0.72726669  0.62663020  0.83016952     0.12700
C978        C  0.66572362  0.57604490  0.84148857    -0.22800
H979        H  0.66947114  0.57927359  0.76854206     0.08300
C980        C  0.69738909  0.58774408  0.70150953     0.04700
C981        C  0.69612262  0.58730743  0.66333469    -0.20000
C982        C  0.69367725  0.60006703  0.64441364    -0.12300
C983        C  0.69147376  0.61297932  0.66419214     0.13400
C984        C  0.69262714  0.61329670  0.70237475    -0.22700
C985        C  0.70112409  0.57455499  0.72081903    -0.05800
H986        H  0.69794027  0.57753750  0.64808421     0.14900
C987        C  0.68749744  0.62631783  0.64615842    -0.16000
H988        H  0.69110702  0.62324668  0.71767780     0.09200
H989        H  0.66871720  0.56708632  0.85798712     0.07100
H990        H  0.65405443  0.56690429  0.82301165     0.08300
H991        H  0.66114391  0.58327348  0.85953548     0.07400
H992        H  0.72743135  0.63778491  0.73959670     0.02200
H993        H  0.73491392  0.62162618  0.73906019     0.02700
H994        H  0.74249610  0.63861605  0.77469084     0.06200
H995        H  0.70237870  0.56534622  0.70133469     0.05200
H996        H  0.68964520  0.56575883  0.73997674    -0.00600
H997        H  0.71426568  0.58246070  0.73632411     0.00900
H998        H  0.67461578  0.62445106  0.65782158     0.04600
H999        H  0.68538659  0.62424505  0.61631575     0.06500
H1000       H  0.69909505  0.64071396  0.65137232     0.07400
C1001       C  0.65644055  0.64715213  0.95441243    -0.22200
C1002       C  0.66365095  0.66085840  0.98132410     0.09700
C1003       C  0.67968786  0.66491551  0.00045804     0.10100
C1004       C  0.68795577  0.65483801  0.99277322    -0.17200
C1005       C  0.68037668  0.64054985  0.96677120    -0.27600
C1006       C  0.66454222  0.63692491  0.94680783     0.18500
C1007       C  0.65337515  0.66981261  0.99081269     0.12400
C1008       C  0.68787027  0.67970229  0.02935084    -0.11900
H1009       H  0.70012029  0.65781310  0.00791068     0.12700
C1010       C  0.65615417  0.62251739  0.91712390    -0.22800
H1011       H  0.64414466  0.64420501  0.93977883     0.08300
C1012       C  0.65638640  0.68565801  0.97242879     0.04700
C1013       C  0.64603014  0.69335943  0.98242569    -0.20000
C1014       C  0.63249014  0.68535885  0.00996327    -0.12300
C1015       C  0.62961447  0.66948837  0.02849641     0.13400
C1016       C  0.64011323  0.66196472  0.01863656    -0.22700
C1017       C  0.67045653  0.69435209  0.94222274    -0.05800
H1018       H  0.64830485  0.70550640  0.96824414     0.14900
C1019       C  0.61594995  0.66066746  0.05942843    -0.16000
H1020       H  0.63797175  0.64983065  0.03267094     0.09200
H1021       H  0.66681538  0.62535581  0.89631416     0.07100
H1022       H  0.64464883  0.62247482  0.90304529     0.08300
H1023       H  0.65039712  0.60854295  0.92891067     0.07400
H1024       H  0.67759410  0.67618008  0.05142320     0.02200
H1025       H  0.69176425  0.69318690  0.01719104     0.02700
H1026       H  0.70044298  0.68119778  0.04169792     0.06200
H1027       H  0.67111856  0.70668117  0.93069370     0.05200
H1028       H  0.66676842  0.68420437  0.91987625    -0.00600
H1029       H  0.68437004  0.69874330  0.95279465     0.00900
H1030       H  0.60167205  0.65486233  0.04925905     0.04600
H1031       H  0.61915009  0.67108847  0.08093088     0.06500
H1032       H  0.61643539  0.64916429  0.07212742     0.07400
C1033       C  0.89880764  0.61126655  0.78927637    -0.22200
C1034       C  0.88254674  0.59876653  0.77058569     0.09700
C1035       C  0.86644881  0.58628736  0.79044548     0.10100
C1036       C  0.86680418  0.58718672  0.82873208    -0.17200
C1037       C  0.88284550  0.60036124  0.84744470    -0.27600
C1038       C  0.89925346  0.61215249  0.82745926     0.18500
C1039       C  0.88253949  0.59979023  0.73025207     0.12400
C1040       C  0.84876703  0.57252789  0.77123039    -0.11900
H1041       H  0.85428377  0.57807988  0.84405775     0.12700
C1042       C  0.91758573  0.62551718  0.84520264    -0.22800
H1043       H  0.91123716  0.62055939  0.77384621     0.08300
C1044       C  0.88260070  0.61443740  0.71257589     0.04700
C1045       C  0.88304120  0.61523398  0.67441372    -0.20000
C1046       C  0.88331044  0.60168598  0.65329267    -0.12300
C1047       C  0.88306418  0.58686356  0.67110095     0.13400
C1048       C  0.88279112  0.58619482  0.70944878    -0.22700
C1049       C  0.88194184  0.62911823  0.73395525    -0.05800
H1050       H  0.88295932  0.62646110  0.66099150     0.14900
C1051       C  0.88348651  0.57194901  0.65016884    -0.16000
H1052       H  0.88283617  0.57505578  0.72336287     0.09200
H1053       H  0.92191369  0.63989381  0.83813526     0.07100
H1054       H  0.92819259  0.62290193  0.83489394     0.08300
H1055       H  0.91737497  0.62417446  0.87525348     0.07400
H1056       H  0.85091689  0.56297893  0.75467119     0.02200
H1057       H  0.84441879  0.57990001  0.75307967     0.02700
H1058       H  0.83737119  0.56410518  0.79085503     0.06200
H1059       H  0.88145158  0.63921579  0.71577340     0.05200
H1060       H  0.89443952  0.63686687  0.75129721    -0.00600
H1061       H  0.86941505  0.62259517  0.75152739     0.00900
H1062       H  0.89587136  0.57823240  0.63221948     0.04600
H1063       H  0.87076605  0.56397961  0.63348790     0.06500
H1064       H  0.88411973  0.56203246  0.66865663     0.07400
C1065       C  0.81134568  0.61517428  0.92809513    -0.22200
C1066       C  0.80937870  0.62445314  0.95743140     0.09700
C1067       C  0.82341244  0.63286215  0.98405469     0.10100
C1068       C  0.83870262  0.63090741  0.98177584    -0.17200
C1069       C  0.84014499  0.62067359  0.95347175    -0.27600
C1070       C  0.82671225  0.61348572  0.92532061     0.18500
C1071       C  0.79188397  0.62402224  0.96072494     0.12400
C1072       C  0.82198949  0.64351374  0.01518009    -0.11900
H1073       H  0.84907817  0.63662072  0.00307885     0.12700
C1074       C  0.82822943  0.60426659  0.89157856    -0.22800
H1075       H  0.80070451  0.60906763  0.90729522     0.08300
C1076       C  0.78891935  0.63649638  0.94158865     0.04700
C1077       C  0.77151304  0.63447445  0.94352751    -0.20000
C1078       C  0.75693516  0.61998554  0.96347010    -0.12300
C1079       C  0.76015889  0.60786949  0.98365371     0.13400
C1080       C  0.77757431  0.61001617  0.98181448    -0.22700
C1081       C  0.80397097  0.65159765  0.91844420    -0.05800
H1082       H  0.76900673  0.64367927  0.92796838     0.14900
C1083       C  0.74573576  0.59271350  0.00785058    -0.16000
H1084       H  0.77996275  0.60052597  0.99663443     0.09200
H1085       H  0.82697635  0.61107909  0.86696895     0.07100
H1086       H  0.81687989  0.58946813  0.89136173     0.08300
H1087       H  0.84165470  0.60530706  0.88918099     0.07400
H1088       H  0.80939198  0.63429897  0.03154451     0.02200
H1089       H  0.82116564  0.65514521  0.00429948     0.02700
H1090       H  0.83416715  0.64931266  0.03353091     0.06200
H1091       H  0.79939512  0.66017459  0.90532550     0.05200
H1092       H  0.80801770  0.64545263  0.89658621    -0.00600
H1093       H  0.81621717  0.66075461  0.93562224     0.00900
H1094       H  0.74214653  0.57906500  0.99707461     0.04600
H1095       H  0.73290756  0.59283866  0.01032331     0.06500
H1096       H  0.75138574  0.59440151  0.03583454     0.07400
C1097       C  0.07216086  0.67563262  0.20811228    -0.22200
C1098       C  0.08922080  0.68581916  0.22597025     0.09700
C1099       C  0.10569936  0.69521050  0.20531109     0.10100
C1100       C  0.10466773  0.69473662  0.16699276    -0.17200
C1101       C  0.08749724  0.68539596  0.14914543    -0.27600
C1102       C  0.07107036  0.67526505  0.16993673     0.18500
C1103       C  0.08927471  0.68765763  0.26617644     0.12400
C1104       C  0.12424303  0.70629463  0.22376357    -0.11900
H1105       H  0.11722953  0.70251365  0.15098188     0.12700
C1106       C  0.05218139  0.66384971  0.15282266    -0.22800
H1107       H  0.05955507  0.66830563  0.22413758     0.08300
C1108       C  0.08660687  0.70099646  0.28227535     0.04700
C1109       C  0.08613629  0.70203766  0.32036337    -0.20000
C1110       C  0.08812705  0.68996174  0.34305259    -0.12300
C1111       C  0.09087003  0.67657349  0.32672077     0.13400
C1112       C  0.09140640  0.67562702  0.28841400    -0.22700
C1113       C  0.08419544  0.71411899  0.25917913    -0.05800
H1114       H  0.08418857  0.71243113  0.33243439     0.14900
C1115       C  0.09292835  0.66304464  0.34913216    -0.16000
H1116       H  0.09335632  0.66536871  0.27565641     0.09200
H1117       H  0.04365339  0.66952217  0.16076771     0.07100
H1118       H  0.04530031  0.64938242  0.16273628     0.08300
H1119       H  0.05263032  0.66340009  0.12264445     0.07400
H1120       H  0.12640701  0.69712360  0.24153004     0.02200
H1121       H  0.12480272  0.71733840  0.24068391     0.02700
H1122       H  0.13574042  0.71292351  0.20365109     0.06200
H1123       H  0.08243279  0.72382788  0.27612394     0.05200
H1124       H  0.07174593  0.70620860  0.24173916    -0.00600
H1125       H  0.09653822  0.72238948  0.24154376     0.00900
H1126       H  0.09438165  0.65328507  0.33168532     0.04600
H1127       H  0.08051767  0.65477272  0.36661105     0.06500
H1128       H  0.10549448  0.67057133  0.36638023     0.07400
C1129       C  0.96446101  0.63418618  0.98025026    -0.22200
C1130       C  0.97293457  0.65033753  0.00115731     0.09700
C1131       C  0.96245245  0.65760857  0.01331427     0.10100
C1132       C  0.94354524  0.64835435  0.00450768    -0.17200
C1133       C  0.93489392  0.63205668  0.98354255    -0.27600
C1134       C  0.94564112  0.62493447  0.97116034     0.18500
C1135       C  0.99297044  0.65949331  0.00888359     0.12400
C1136       C  0.97129920  0.67529094  0.03493046    -0.11900
H1137       H  0.93550703  0.65393511  0.01400831     0.12700
C1138       C  0.93770321  0.60785844  0.94771978    -0.22800
H1139       H  0.97273685  0.62884581  0.97083143     0.08300
C1140       C  0.99939741  0.65542825  0.04067967     0.04700
C1141       C  0.01846005  0.66322561  0.04522077    -0.20000
C1142       C  0.03123222  0.67473877  0.01846719    -0.12300
C1143       C  0.02471783  0.67847638  0.98616839     0.13400
C1144       C  0.00566861  0.67099491  0.98211217    -0.22700
C1145       C  0.98613141  0.64245667  0.06929787    -0.05800
H1146       H  0.02344049  0.66021501  0.06975641     0.14900
C1147       C  0.03711614  0.68925521  0.95447750    -0.16000
H1148       H  0.00058893  0.67360774  0.95723465     0.09200
H1149       H  0.92685003  0.59563562  0.96303266     0.07100
H1150       H  0.94838567  0.60492101  0.93955818     0.08300
H1151       H  0.93182343  0.60974354  0.92234262     0.07400
H1152       H  0.98257507  0.68671360  0.01865018     0.02200
H1153       H  0.97715768  0.67377094  0.06065921     0.02700
H1154       H  0.96117397  0.67914029  0.04208662     0.06200
H1155       H  0.99348838  0.64066067  0.09225543     0.05200
H1156       H  0.97657294  0.62867757  0.05701433    -0.00600
H1157       H  0.97794696  0.64790345  0.08060966     0.00900
H1158       H  0.03210922  0.68056345  0.92951808     0.04600
H1159       H  0.05168856  0.69350055  0.95836468     0.06500
H1160       H  0.03667673  0.70181661  0.94980436     0.07400
C1161       C  0.58007868  0.87013560  0.20177089    -0.22200
C1162       C  0.59541575  0.88333726  0.22189140     0.09700
C1163       C  0.61142445  0.89707257  0.20355745     0.10100
C1164       C  0.61164609  0.89745661  0.16530805    -0.17200
C1165       C  0.59632927  0.88423884  0.14485909    -0.27600
C1166       C  0.58040742  0.87011705  0.16344938     0.18500
C1167       C  0.59485099  0.88201071  0.26218575     0.12400
C1168       C  0.62831428  0.91121426  0.22442184    -0.11900
H1169       H  0.62391793  0.90814195  0.15125534     0.12700
C1170       C  0.56395046  0.85415290  0.14450344    -0.22800
H1171       H  0.56797733  0.85937610  0.21614410     0.08300
C1172       C  0.58834196  0.89098383  0.28386574     0.04700
C1173       C  0.58921227  0.89024127  0.32207204    -0.20000
C1174       C  0.59644614  0.88070975  0.33884270    -0.12300
C1175       C  0.60200861  0.87086980  0.31697564     0.13400
C1176       C  0.60136372  0.87187584  0.27888991    -0.22700
C1177       C  0.58072753  0.90149288  0.26657748    -0.05800
H1178       H  0.58469847  0.89752580  0.33888262     0.14900
C1179       C  0.60807288  0.85865514  0.33265980    -0.16000
H1180       H  0.60595893  0.86466846  0.26202928     0.09200
H1181       H  0.55153936  0.85487290  0.14928975     0.07100
H1182       H  0.56133204  0.84095411  0.15595664     0.08300
H1183       H  0.56581703  0.85353961  0.11483787     0.07400
H1184       H  0.63350360  0.90417204  0.24131016     0.02200
H1185       H  0.62476723  0.91928489  0.24248629     0.02700
H1186       H  0.63964866  0.92101877  0.20589154     0.06200
H1187       H  0.57625483  0.90774349  0.28739698     0.05200
H1188       H  0.56857666  0.89199636  0.24946568    -0.00600
H1189       H  0.59146911  0.91276419  0.24917951     0.00900
H1190       H  0.59922741  0.84447653  0.32144642     0.04600
H1191       H  0.60687371  0.85738752  0.36273808     0.06500
H1192       H  0.62266183  0.86413752  0.32486893     0.07400
C1193       C  0.62049733  0.79056415  0.00810456    -0.22200
C1194       C  0.61364867  0.79526925  0.03805183     0.09700
C1195       C  0.60694004  0.78359411  0.06878785     0.10100
C1196       C  0.60680184  0.76715249  0.06849501    -0.17200
C1197       C  0.61306288  0.76200049  0.03805076    -0.27600
C1198       C  0.62009260  0.77395873  0.00736172     0.18500
C1199       C  0.61213046  0.81163824  0.03528646     0.12400
C1200       C  0.59959938  0.78833004  0.10154482    -0.11900
H1201       H  0.60134229  0.75801068  0.09191355     0.12700
C1202       C  0.62611317  0.76937982  0.97239027    -0.22800
H1203       H  0.62543151  0.79954940  0.98440498     0.08300
C1204       C  0.62693449  0.82949992  0.04441538     0.04700
C1205       C  0.62470354  0.84452295  0.04095379    -0.20000
C1206       C  0.60795186  0.84202070  0.02875569    -0.12300
C1207       C  0.59327051  0.82407248  0.01861252     0.13400
C1208       C  0.59551504  0.80911319  0.02257571    -0.22700
C1209       C  0.64490767  0.83259321  0.05840565    -0.05800
H1210       H  0.63591533  0.85820899  0.04883216     0.14900
C1211       C  0.57531259  0.82009637  0.00227387    -0.16000
H1212       H  0.58428541  0.79534368  0.01511467     0.09200
H1213       H  0.64097673  0.77981783  0.96740928     0.07100
H1214       H  0.61794438  0.76978675  0.94931195     0.08300
H1215       H  0.62411957  0.75554447  0.97210282     0.07400
H1216       H  0.58761789  0.78924375  0.09347731     0.02200
H1217       H  0.61058786  0.80181384  0.11296947     0.02700
H1218       H  0.59495852  0.77773797  0.12335294     0.06200
H1219       H  0.65502684  0.84739001  0.06459793     0.05200
H1220       H  0.65110730  0.82807131  0.03758360    -0.00600
H1221       H  0.64238699  0.82452015  0.08381663     0.00900
H1222       H  0.57249934  0.81204716  0.97671020     0.04600
H1223       H  0.57544662  0.83265577  0.99465089     0.06500
H1224       H  0.56381284  0.81179149  0.02175467     0.07400
C1225       C  0.68108910  0.09907226  0.77181925    -0.22200
C1226       C  0.68525112  0.08759030  0.75267481     0.09700
C1227       C  0.69020156  0.07665986  0.77200088     0.10100
C1228       C  0.69106892  0.07760388  0.81019424    -0.17200
C1229       C  0.68731035  0.08938766  0.82964739    -0.27600
C1230       C  0.68236617  0.10041778  0.81005088     0.18500
C1231       C  0.68622403  0.08858083  0.71234632     0.12400
C1232       C  0.69472418  0.06412390  0.75222570    -0.11900
H1233       H  0.69487531  0.06916721  0.82498353     0.12700
C1234       C  0.67952102  0.11463846  0.82764347    -0.22800
H1235       H  0.67765028  0.10770352  0.75665414     0.08300
C1236       C  0.67047008  0.07808997  0.69022804     0.04700
C1237       C  0.67254549  0.07886613  0.65207547    -0.20000
C1238       C  0.69005414  0.08976489  0.63582241    -0.12300
C1239       C  0.70570593  0.10089830  0.65814472     0.13400
C1240       C  0.70356154  0.10002338  0.69610313    -0.22700
C1241       C  0.65162762  0.06580515  0.70696495    -0.05800
H1242       H  0.66056893  0.07046970  0.63493954     0.14900
C1243       C  0.72479207  0.11425853  0.64316100    -0.16000
H1244       H  0.71556375  0.10830036  0.71328783     0.09200
H1245       H  0.66494946  0.11059096  0.82386588     0.07100
H1246       H  0.68873239  0.12825179  0.81434870     0.08300
H1247       H  0.68283038  0.11671455  0.85702348     0.07400
H1248       H  0.70683932  0.07239347  0.73405406     0.02200
H1249       H  0.68267969  0.05398146  0.73558073     0.02700
H1250       H  0.69811519  0.05635010  0.77147196     0.06200
H1251       H  0.64080320  0.05839963  0.68582977     0.05200
H1252       H  0.64795184  0.07424817  0.72351229    -0.00600
H1253       H  0.65167675  0.05535766  0.72479380     0.00900
H1254       H  0.72988295  0.12833059  0.65382355     0.04600
H1255       H  0.72520680  0.11525276  0.61308397     0.06500
H1256       H  0.73439377  0.11002620  0.65202762     0.07400
C1257       C  0.64665095  0.97410140  0.02864627    -0.22200
C1258       C  0.65267081  0.97963237  0.99273853     0.09700
C1259       C  0.65066849  0.96652949  0.96677953     0.10100
C1260       C  0.64209342  0.94792802  0.97714703    -0.17200
C1261       C  0.63525691  0.94222381  0.01268015    -0.27600
C1262       C  0.63800830  0.95554288  0.03906254     0.18500
C1263       C  0.66025413  0.99909748  0.98261973     0.12400
C1264       C  0.65701268  0.97212028  0.92795496    -0.11900
H1265       H  0.63990950  0.93767558  0.95700524     0.12700
C1266       C  0.63227978  0.95078058  0.07845949    -0.22800
H1267       H  0.64846844  0.98432134  0.04855036     0.08300
C1268       C  0.64847712  0.00526390  0.97336746     0.04700
C1269       C  0.65617475  0.02389702  0.96452028    -0.20000
C1270       C  0.67542270  0.03662734  0.96498829    -0.12300
C1271       C  0.68722675  0.03029175  0.97428117     0.13400
C1272       C  0.67941944  0.01155860  0.98289663    -0.22700
C1273       C  0.62777135  0.99214921  0.97288051    -0.05800
H1274       H  0.64700704  0.02853501  0.95751718     0.14900
C1275       C  0.70798634  0.04296998  0.97534699    -0.16000
H1276       H  0.68827306  0.00657112  0.99014062     0.09200
H1277       H  0.62160148  0.95393937  0.08516141     0.07100
H1278       H  0.64448441  0.95921849  0.09626804     0.08300
H1279       H  0.62673611  0.93610011  0.08507620     0.07400
H1280       H  0.67212748  0.98247429  0.92738956     0.02200
H1281       H  0.64965974  0.97824923  0.91556953     0.02700
H1282       H  0.65420397  0.96012760  0.91103032     0.06200
H1283       H  0.62056787  0.99919919  0.96473586     0.05200
H1284       H  0.62279742  0.98617032  0.00048115    -0.00600
H1285       H  0.62396390  0.98081531  0.95316326     0.00900
H1286       H  0.71482888  0.03546141  0.98271835     0.04600
H1287       H  0.71201180  0.05390932  0.99614149     0.06500
H1288       H  0.71324369  0.04930576  0.94808742     0.07400
C1289       C  0.06331212  0.35466602  0.27821922    -0.22200
C1290       C  0.07952034  0.36738954  0.25947992     0.09700
C1291       C  0.09547892  0.38011245  0.27929657     0.10100
C1292       C  0.09499031  0.37948731  0.31759137    -0.17200
C1293       C  0.07898725  0.36626153  0.33639781    -0.27600
C1294       C  0.06277523  0.35398303  0.31646820     0.18500
C1295       C  0.07961099  0.36673045  0.21909143     0.12400
C1296       C  0.11316370  0.39389456  0.26000210    -0.11900
H1297       H  0.10738709  0.38887522  0.33289981     0.12700
C1298       C  0.04457015  0.34032901  0.33442185    -0.22800
H1299       H  0.05100525  0.34511682  0.26282504     0.08300
C1300       C  0.08098284  0.35308697  0.20055203     0.04700
C1301       C  0.08118169  0.35304394  0.16230666    -0.20000
C1302       C  0.08001767  0.36630814  0.14205212    -0.12300
C1303       C  0.07793939  0.37959514  0.16077856     0.13400
C1304       C  0.07810259  0.37979556  0.19910096    -0.22700
C1305       C  0.08266209  0.33883211  0.22114253    -0.05800
H1306       H  0.08270360  0.34281853  0.14813690     0.14900
C1307       C  0.07468869  0.39322874  0.14179360    -0.16000
H1308       H  0.07668556  0.39001951  0.21357172     0.09200
H1309       H  0.04052739  0.32604745  0.32724377     0.07100
H1310       H  0.03374250  0.34266439  0.32440787     0.08300
H1311       H  0.04486419  0.34159392  0.36451423     0.07400
H1312       H  0.11089327  0.40316908  0.24282359     0.02200
H1313       H  0.11774234  0.38650792  0.24242389     0.02700
H1314       H  0.12444141  0.40258616  0.27958253     0.06200
H1315       H  0.08400431  0.32941017  0.20242337     0.05200
H1316       H  0.07018367  0.33031040  0.23828354    -0.00600
H1317       H  0.09508950  0.34581073  0.23888222     0.00900
H1318       H  0.06215054  0.39215952  0.15338823     0.04600
H1319       H  0.07218142  0.39074880  0.11217231     0.06500
H1320       H  0.08672447  0.40747814  0.14627998     0.07400
C1321       C  0.14677924  0.34480223  0.00331586    -0.22200
C1322       C  0.15623456  0.34801136  0.03638041     0.09700
C1323       C  0.14963880  0.35201818  0.06803609     0.10100
C1324       C  0.13411398  0.35345793  0.06558992    -0.17200
C1325       C  0.12506945  0.35107349  0.03220267    -0.27600
C1326       C  0.13136138  0.34647649  0.00063351     0.18500
C1327       C  0.17453139  0.35004693  0.03612874     0.12400
C1328       C  0.15929610  0.35524954  0.10416425    -0.11900
H1329       H  0.12932206  0.35703220  0.08970836     0.12700
C1330       C  0.12321291  0.34460064  0.96324566    -0.22800
H1331       H  0.15212899  0.34204138  0.97896618     0.08300
C1332       C  0.17662353  0.33485505  0.03875077     0.04700
C1333       C  0.19452534  0.33798422  0.03923251    -0.20000
C1334       C  0.21034104  0.35600158  0.03747190    -0.12300
C1335       C  0.20804604  0.37119279  0.03429169     0.13400
C1336       C  0.19017935  0.36793125  0.03354924    -0.22700
C1337       C  0.15998969  0.31546008  0.04143819    -0.05800
H1338       H  0.19615824  0.32632104  0.04152618     0.14900
C1339       C  0.22418607  0.39091550  0.03101452    -0.16000
H1340       H  0.18832768  0.37946749  0.03126968     0.09200
H1341       H  0.11779064  0.33044958  0.95269103     0.07100
H1342       H  0.13415668  0.35472999  0.94443409     0.08300
H1343       H  0.11187041  0.34718157  0.96271554     0.07400
H1344       H  0.17371440  0.36733522  0.10222369     0.02200
H1345       H  0.15952259  0.34283522  0.11182097     0.02700
H1346       H  0.15219925  0.35801823  0.12626941     0.06200
H1347       H  0.16402426  0.30514238  0.04357769     0.05200
H1348       H  0.15124808  0.31219693  0.01678801    -0.00600
H1349       H  0.15175613  0.31416008  0.06599681     0.00900
H1350       H  0.21959077  0.40069525  0.02677268     0.04600
H1351       H  0.23294108  0.39228872  0.00731617     0.06500
H1352       H  0.23249516  0.39516766  0.05644120     0.07400
C1353       C  0.86645934  0.26922049  0.77157768    -0.22200
C1354       C  0.87766708  0.28647662  0.75489322     0.09700
C1355       C  0.88821848  0.30232748  0.77677988     0.10100
C1356       C  0.88777152  0.30043455  0.81501866    -0.17200
C1357       C  0.87708863  0.28300995  0.83170328    -0.27600
C1358       C  0.86582974  0.26727227  0.80964067     0.18500
C1359       C  0.87866573  0.28723300  0.71439880     0.12400
C1360       C  0.90017277  0.32111132  0.75967753    -0.11900
H1361       H  0.89623377  0.31250843  0.83187301     0.12700
C1362       C  0.85253112  0.24828266  0.82505000    -0.22800
H1363       H  0.85815703  0.25711772  0.75466255     0.08300
C1364       C  0.89061287  0.28343130  0.69550146     0.04700
C1365       C  0.88991192  0.28238991  0.65729704    -0.20000
C1366       C  0.87739655  0.28483963  0.63720679    -0.12300
C1367       C  0.86538779  0.28873465  0.65630561     0.13400
C1368       C  0.86642062  0.29013038  0.69464569    -0.22700
C1369       C  0.90394433  0.28020362  0.71575476    -0.05800
H1370       H  0.89913009  0.27942215  0.64297959     0.14900
C1371       C  0.85054898  0.29039044  0.63809306    -0.16000
H1372       H  0.85705219  0.29274792  0.70939339     0.09200
H1373       H  0.85680293  0.23867661  0.81641632     0.07100
H1374       H  0.83842467  0.24308747  0.81443190     0.08300
H1375       H  0.85152230  0.24801948  0.85515349     0.07400
H1376       H  0.89144686  0.32449987  0.74338396     0.02200
H1377       H  0.91061083  0.32119044  0.74151947     0.02700
H1378       H  0.90760203  0.33205557  0.78059025     0.06200
H1379       H  0.91237940  0.27748902  0.69683789     0.05200
H1380       H  0.89620857  0.26807138  0.73408345    -0.00600
H1381       H  0.91349682  0.29257361  0.73228453     0.00900
H1382       H  0.83695014  0.28039451  0.65072864     0.04600
H1383       H  0.84907658  0.28734199  0.60859868     0.06500
H1384       H  0.85350932  0.30457313  0.64213017     0.07400
C1385       C  0.96709267  0.31768763  0.94587679    -0.22200
C1386       C  0.97230815  0.31235140  0.97737791     0.09700
C1387       C  0.95850763  0.29919896  0.00110898     0.10100
C1388       C  0.93976216  0.29179941  0.99290675    -0.17200
C1389       C  0.93450145  0.29740277  0.96170858    -0.27600
C1390       C  0.94839293  0.31023815  0.93742881     0.18500
C1391       C  0.99231057  0.32130412  0.98574891     0.12400
C1392       C  0.96359464  0.29300678  0.03506308    -0.11900
H1393       H  0.92916694  0.28190941  0.01139653     0.12700
C1394       C  0.94416057  0.31594708  0.90171276    -0.22800
H1395       H  0.97773019  0.32771049  0.92760241     0.08300
C1396       C  0.00357891  0.31624107  0.96787253     0.04700
C1397       C  0.02244889  0.32527260  0.97697357    -0.20000
C1398       C  0.03036047  0.33939879  0.00331421    -0.12300
C1399       C  0.01888893  0.34431561  0.02136061     0.13400
C1400       C  0.00008458  0.33523866  0.01217744    -0.22700
C1401       C  0.99562737  0.30118516  0.93952994    -0.05800
H1402       H  0.03108802  0.32138584  0.96320003     0.14900
C1403       C  0.02607492  0.35871129  0.05110809    -0.16000
H1404       H  0.99129475  0.33899322  0.02577985     0.09200
H1405       H  0.95107348  0.31323197  0.87914693     0.07100
H1406       H  0.94953339  0.33095725  0.90234818     0.08300
H1407       H  0.92924918  0.30830383  0.89506188     0.07400
H1408       H  0.97189657  0.30496098  0.05348833     0.02200
H1409       H  0.97181793  0.28693314  0.02755962     0.02700
H1410       H  0.95114666  0.28242383  0.05030684     0.06200
H1411       H  0.00623320  0.29871494  0.92859334     0.05200
H1412       H  0.99005230  0.30509260  0.91638965    -0.00600
H1413       H  0.98430856  0.28809824  0.95177129     0.00900
H1414       H  0.03646199  0.37248617  0.03978737     0.04600
H1415       H  0.03237621  0.35498204  0.07318128     0.06500
H1416       H  0.01487280  0.35984979  0.06350839     0.07400
C1417       C  0.81249543  0.19396084  0.97845761    -0.22200
C1418       C  0.80012867  0.18813702  0.94914698     0.09700
C1419       C  0.80431458  0.19987332  0.91884587     0.10100
C1420       C  0.82074797  0.21735043  0.91873201    -0.17200
C1421       C  0.83310934  0.22338614  0.94822073    -0.27600
C1422       C  0.82886045  0.21155642  0.97868652     0.18500
C1423       C  0.78210486  0.17040431  0.95193430     0.12400
C1424       C  0.79130594  0.19400787  0.88686370    -0.11900
H1425       H  0.82390999  0.22642993  0.89554294     0.12700
C1426       C  0.84045846  0.21726166  0.01283129    -0.22800
H1427       H  0.80899798  0.18497139  0.00193698     0.08300
C1428       C  0.77964694  0.15363274  0.93966347     0.04700
C1429       C  0.76185915  0.13752007  0.94031903    -0.20000
C1430       C  0.74656751  0.13789779  0.95302111    -0.12300
C1431       C  0.74933353  0.15453764  0.96748870     0.13400
C1432       C  0.76703960  0.17062910  0.96617485    -0.22700
C1433       C  0.79572007  0.15286726  0.92533828    -0.05800
H1434       H  0.75977961  0.12472238  0.92972892     0.14900
C1435       C  0.73421094  0.15583182  0.98558625    -0.16000
H1436       H  0.76913614  0.18351051  0.97634055     0.09200
H1437       H  0.84594076  0.20820943  0.01677283     0.07100
H1438       H  0.83172564  0.21570060  0.03672005     0.08300
H1439       H  0.85220032  0.23180285  0.01260116     0.07400
H1440       H  0.77770343  0.19130313  0.89605288     0.02200
H1441       H  0.78934290  0.18122222  0.87461701     0.02700
H1442       H  0.79671518  0.20481266  0.86534518     0.06200
H1443       H  0.79140340  0.13867263  0.91673413     0.05200
H1444       H  0.80635389  0.15734664  0.94697079    -0.00600
H1445       H  0.80192856  0.16216659  0.90140828     0.00900
H1446       H  0.73875393  0.16174730  0.01335444     0.04600
H1447       H  0.72111935  0.14230344  0.98908880     0.06500
H1448       H  0.73145035  0.16505518  0.96941264     0.07400
C1449       C  0.27373376  0.86813077  0.20361280    -0.22200
C1450       C  0.27974796  0.88470337  0.22221179     0.09700
C1451       C  0.28483357  0.90082877  0.20227526     0.10100
C1452       C  0.28310890  0.89986240  0.16412930    -0.17200
C1453       C  0.27659782  0.88317564  0.14542743    -0.27600
C1454       C  0.27196110  0.86708314  0.16544192     0.18500
C1455       C  0.27868278  0.88447697  0.26260961     0.12400
C1456       C  0.29167909  0.91893498  0.22142508    -0.11900
H1457       H  0.28661409  0.91215293  0.14881090     0.12700
C1458       C  0.26404663  0.84834932  0.14810889    -0.22800
H1459       H  0.26962487  0.85573227  0.21914963     0.08300
C1460       C  0.26226618  0.88035949  0.28030814     0.04700
C1461       C  0.26187087  0.88108702  0.31845446    -0.20000
C1462       C  0.27745355  0.88568745  0.33964390    -0.12300
C1463       C  0.29390103  0.88961918  0.32179917     0.13400
C1464       C  0.29429176  0.88899471  0.28340393    -0.22700
C1465       C  0.24516446  0.87529470  0.25884959    -0.05800
H1466       H  0.24917712  0.87789376  0.33182039     0.14900
C1467       C  0.31119369  0.89496735  0.34274995    -0.16000
H1468       H  0.30686056  0.89221286  0.26946119     0.09200
H1469       H  0.25034248  0.83844103  0.16044956     0.07100
H1470       H  0.27341876  0.84334188  0.15326661     0.08300
H1471       H  0.26198321  0.84824967  0.11832861     0.07400
H1472       H  0.30435945  0.92290569  0.23715279     0.02200
H1473       H  0.28090344  0.91759491  0.24041034     0.02700
H1474       H  0.29508944  0.93021570  0.20181938     0.06200
H1475       H  0.23351835  0.87252690  0.27693316     0.05200
H1476       H  0.24067773  0.86265338  0.24254173    -0.00600
H1477       H  0.24814023  0.88678081  0.24020013     0.00900
H1478       H  0.30869960  0.88335619  0.36050525     0.04600
H1479       H  0.31539163  0.90736546  0.35966542     0.06500
H1480       H  0.32289105  0.89831123  0.32426696     0.07400
C1481       C  0.18892242  0.80911855  0.07189224    -0.22200
C1482       C  0.17739903  0.80480118  0.04158812     0.09700
C1483       C  0.18246211  0.81787584  0.01341992     0.10100
C1484       C  0.19961792  0.83470211  0.01522892    -0.17200
C1485       C  0.21176683  0.83846901  0.04437297    -0.27600
C1486       C  0.20597767  0.82589457  0.07390173     0.18500
C1487       C  0.16085240  0.78592174  0.03895077     0.12400
C1488       C  0.17007664  0.81373666  0.98095923    -0.11900
H1489       H  0.20401842  0.84441923  0.99278929     0.12700
C1490       C  0.21732901  0.82969114  0.10798050    -0.22800
H1491       H  0.18474953  0.79911557  0.09376534     0.08300
C1492       C  0.16208272  0.77147536  0.02390179     0.04700
C1493       C  0.14642520  0.75347103  0.02404172    -0.20000
C1494       C  0.12965718  0.74948937  0.03960512    -0.12300
C1495       C  0.12864135  0.76399179  0.05570010     0.13400
C1496       C  0.14419606  0.78210984  0.05438728    -0.22700
C1497       C  0.18002685  0.77504666  0.00828783    -0.05800
H1498       H  0.14732122  0.74239159  0.01210294     0.14900
C1499       C  0.11203499  0.76095749  0.07659632    -0.16000
H1500       H  0.14357038  0.79324974  0.06683947     0.09200
H1501       H  0.22201246  0.81987484  0.10967590     0.07100
H1502       H  0.20872008  0.82777790  0.13230875     0.08300
H1503       H  0.22952248  0.84401359  0.10931317     0.07400
H1504       H  0.15650629  0.81109767  0.99020629     0.02200
H1505       H  0.16788281  0.80133297  0.96648092     0.02700
H1506       H  0.17614203  0.82542890  0.96131762     0.06200
H1507       H  0.17858908  0.76220793  0.99758971     0.05200
H1508       H  0.19081766  0.78071103  0.02980447    -0.00600
H1509       H  0.18464113  0.78513983  0.98555409     0.00900
H1510       H  0.11641519  0.76691851  0.10437826     0.04600
H1511       H  0.10108593  0.74625340  0.08037659     0.06500
H1512       H  0.10606331  0.76803009  0.06239527     0.07400
C1513       C  0.38240635  0.08210798  0.78765461    -0.22200
C1514       C  0.37237746  0.08782226  0.76764026     0.09700
C1515       C  0.36150433  0.09312742  0.78623088     0.10100
C1516       C  0.36086074  0.09258757  0.82444591    -0.17200
C1517       C  0.37093312  0.08699920  0.84475986    -0.27600
C1518       C  0.38174623  0.08148725  0.82606007     0.18500
C1519       C  0.37285565  0.08773829  0.72716162     0.12400
C1520       C  0.35066240  0.09949392  0.76567107    -0.11900
H1521       H  0.35260235  0.09683122  0.83863905     0.12700
C1522       C  0.39206759  0.07411237  0.84520848    -0.22800
H1523       H  0.39055413  0.07781532  0.77318371     0.08300
C1524       C  0.38625549  0.10329116  0.70716834     0.04700
C1525       C  0.38480832  0.10336441  0.66895824    -0.20000
C1526       C  0.37003639  0.08836609  0.65039584    -0.12300
C1527       C  0.35698731  0.07249642  0.67049999     0.13400
C1528       C  0.35863922  0.07238812  0.70861419    -0.22700
C1529       C  0.40178638  0.11994474  0.72631902    -0.05800
H1530       H  0.39490876  0.11544838  0.65364361     0.14900
C1531       C  0.34144049  0.05550972  0.65206467    -0.16000
H1532       H  0.34846458  0.06047214  0.72423793     0.09200
H1533       H  0.40712103  0.08340050  0.83989947     0.07100
H1534       H  0.38739010  0.06015183  0.83445080     0.08300
H1535       H  0.38978043  0.07268230  0.87504307     0.07400
H1536       H  0.34043979  0.08827131  0.74754718     0.02200
H1537       H  0.36019802  0.11179383  0.74889859     0.02700
H1538       H  0.34302832  0.10332770  0.78439606     0.06200
H1539       H  0.41103389  0.13098296  0.70672805     0.05200
H1540       H  0.41019673  0.11590421  0.74189725    -0.00600
H1541       H  0.39605779  0.12570469  0.74544425     0.00900
H1542       H  0.34713589  0.05057981  0.63095759     0.04600
H1543       H  0.33171345  0.05868048  0.63927432     0.06500
H1544       H  0.33338222  0.04405444  0.67175491     0.07400
C1545       C  0.34686529  0.15060157  0.98840211    -0.22200
C1546       C  0.34983389  0.16036738  0.95580444     0.09700
C1547       C  0.35357830  0.15403807  0.92341318     0.10100
C1548       C  0.35530180  0.13866561  0.92475819    -0.17200
C1549       C  0.35314707  0.12931510  0.95763432    -0.27600
C1550       C  0.34850226  0.13513725  0.98984956     0.18500
C1551       C  0.35134566  0.17843070  0.95689866     0.12400
C1552       C  0.35598937  0.16367430  0.88753873    -0.11900
H1553       H  0.35871857  0.13411171  0.90008076     0.12700
C1554       C  0.34631855  0.12628635  0.02661429    -0.22800
H1555       H  0.34410942  0.15560739  0.01325123     0.08300
C1556       C  0.33575199  0.17996263  0.95628918     0.04700
C1557       C  0.33831112  0.19761483  0.95527074    -0.20000
C1558       C  0.35614090  0.21374633  0.95472103    -0.12300
C1559       C  0.37174241  0.21205657  0.95701111     0.13400
C1560       C  0.36907343  0.19442892  0.95796072    -0.22700
C1561       C  0.31650418  0.16298322  0.95608431    -0.05800
H1562       H  0.32632811  0.19878984  0.95406812     0.14900
C1563       C  0.39128158  0.22863050  0.95922648    -0.16000
H1564       H  0.38094316  0.19305016  0.95909012     0.09200
H1565       H  0.33209488  0.12076089  0.03701324     0.07100
H1566       H  0.35635792  0.13682273  0.04608225     0.08300
H1567       H  0.34878002  0.11487110  0.02619470     0.07400
H1568       H  0.36793818  0.17816876  0.88900706     0.02200
H1569       H  0.34327858  0.16362199  0.88121771     0.02700
H1570       H  0.35852084  0.15673378  0.86476329     0.06200
H1571       H  0.30582025  0.16657987  0.95535890     0.05200
H1572       H  0.31426065  0.15471173  0.98107865    -0.00600
H1573       H  0.31466233  0.15445777  0.93171193     0.00900
H1574       H  0.40146567  0.22454527  0.96350385     0.04600
H1575       H  0.39254012  0.23753425  0.98251981     0.06500
H1576       H  0.39509543  0.23661961  0.93340859     0.07400
C1577       C  0.28950982  0.96393710  0.99229894    -0.22200
C1578       C  0.30814479  0.97552871  0.00185227     0.09700
C1579       C  0.31762655  0.96798124  0.01780522     0.10100
C1580       C  0.30837047  0.94882608  0.02282641    -0.17200
C1581       C  0.28969184  0.93697448  0.01294947    -0.27600
C1582       C  0.28006375  0.94473617  0.99782444     0.18500
C1583       C  0.31766065  0.99553040  0.99410993     0.12400
C1584       C  0.33745908  0.98017324  0.02990688    -0.11900
H1585       H  0.31580599  0.94312607  0.03492322     0.12700
C1586       C  0.25998436  0.93306606  0.98708203    -0.22800
H1587       H  0.28238377  0.96998514  0.98024550     0.08300
C1588       C  0.32799201  0.00310690  0.96182477     0.04700
C1589       C  0.33756936  0.02225432  0.95634335    -0.20000
C1590       C  0.33677427  0.03396302  0.98205893    -0.12300
C1591       C  0.32625327  0.02630556  0.01438175     0.13400
C1592       C  0.31671988  0.00711119  0.01982038    -0.22700
C1593       C  0.32872494  0.99095327  0.93300505    -0.05800
H1594       H  0.34556161  0.02812164  0.93155805     0.14900
C1595       C  0.32539042  0.03782540  0.04448970    -0.16000
H1596       H  0.30882576  0.00116312  0.04468116     0.09200
H1597       H  0.25804082  0.92274489  0.96628999     0.07100
H1598       H  0.25497121  0.94152821  0.97517847     0.08300
H1599       H  0.25135493  0.92594326  0.01146738     0.07400
H1600       H  0.33855046  0.99014951  0.05067604     0.02200
H1601       H  0.34642186  0.98792784  0.00631145     0.02700
H1602       H  0.34275028  0.97202882  0.04218054     0.06200
H1603       H  0.33729605  0.99911806  0.90926122     0.05200
H1604       H  0.31453112  0.98085946  0.92307834    -0.00600
H1605       H  0.33475292  0.98333152  0.94444869     0.00900
H1606       H  0.31090704  0.03414181  0.04791819     0.04600
H1607       H  0.33430676  0.05287324  0.03960486     0.06500
H1608       H  0.33005320  0.03492868  0.07044649     0.07400
C1609       C  0.43377506  0.30348847  0.05327128    -0.22200
C1610       C  0.42732198  0.29469613  0.08714184     0.09700
C1611       C  0.40825781  0.28183958  0.09213706     0.10100
C1612       C  0.39611432  0.27764387  0.06282656    -0.17200
C1613       C  0.40243705  0.28608105  0.02842930    -0.27600
C1614       C  0.42160295  0.29940249  0.02380559     0.18500
C1615       C  0.44060757  0.29960526  0.11756915     0.12400
C1616       C  0.40068518  0.27268163  0.12857984    -0.11900
H1617       H  0.38152080  0.26751031  0.06689157     0.12700
C1618       C  0.42939010  0.30956663  0.98832989    -0.22800
H1619       H  0.44842983  0.31359472  0.04993910     0.08300
C1620       C  0.44842347  0.28906802  0.12548961     0.04700
C1621       C  0.46035551  0.29392278  0.15552869    -0.20000
C1622       C  0.46479296  0.30916814  0.17755879    -0.12300
C1623       C  0.45657617  0.31942482  0.17005167     0.13400
C1624       C  0.44481301  0.31466571  0.13982908    -0.22700
C1625       C  0.44439512  0.27290287  0.10195171    -0.05800
H1626       H  0.46650855  0.28597006  0.16149511     0.14900
C1627       C  0.45919578  0.33489829  0.19413713    -0.16000
H1628       H  0.43849288  0.32249293  0.13407916     0.09200
H1629       H  0.44447420  0.31995249  0.99026075     0.07100
H1630       H  0.42247369  0.31698526  0.98085070     0.08300
H1631       H  0.42731463  0.29968340  0.96643101     0.07400
H1632       H  0.40404729  0.28335505  0.14962951     0.02200
H1633       H  0.40684079  0.26463297  0.13662815     0.02700
H1634       H  0.38542093  0.26308282  0.12789885     0.06200
H1635       H  0.45174887  0.26626737  0.11181323     0.05200
H1636       H  0.44893046  0.27766900  0.07352099    -0.00600
H1637       H  0.42935319  0.26231807  0.10203677     0.00900
H1638       H  0.46646963  0.34810193  0.17870571     0.04600
H1639       H  0.46708982  0.33647942  0.21917680     0.06500
H1640       H  0.44547431  0.33200094  0.20301555     0.07400
C1641       C  0.42718760  0.30409585  0.41126211    -0.22200
C1642       C  0.42630932  0.28987824  0.39062172     0.09700
C1643       C  0.41247719  0.27135946  0.39818233     0.10100
C1644       C  0.39956622  0.26747695  0.42593204    -0.17200
C1645       C  0.40023403  0.28167814  0.44652781    -0.27600
C1646       C  0.41420312  0.30030472  0.43886162     0.18500
C1647       C  0.43950063  0.29477677  0.36007603     0.12400
C1648       C  0.41135124  0.25574083  0.37688622    -0.11900
H1649       H  0.38893825  0.25321789  0.43178191     0.12700
C1650       C  0.41540884  0.31661279  0.45749517    -0.22800
H1651       H  0.43777320  0.31832309  0.40499368     0.08300
C1652       C  0.43563142  0.29858924  0.32494191     0.04700
C1653       C  0.44868287  0.30360924  0.29693093    -0.20000
C1654       C  0.46550236  0.30497931  0.30340834    -0.12300
C1655       C  0.46914321  0.30060158  0.33833614     0.13400
C1656       C  0.45610931  0.29568200  0.36636058    -0.22700
C1657       C  0.41779369  0.29748795  0.31715866    -0.05800
H1658       H  0.44594468  0.30687509  0.27003899     0.14900
C1659       C  0.48635450  0.30056060  0.34678064    -0.16000
H1660       H  0.45887814  0.29246467  0.39327214     0.09200
H1661       H  0.41533494  0.32594971  0.43657706     0.07100
H1662       H  0.42851926  0.32435681  0.47312992     0.08300
H1663       H  0.40373756  0.31280521  0.47615774     0.07400
H1664       H  0.42437410  0.25599861  0.38029650     0.02200
H1665       H  0.40928848  0.25720470  0.34749229     0.02700
H1666       H  0.39969107  0.24207142  0.38627308     0.06200
H1667       H  0.41697323  0.30089326  0.28826661     0.05200
H1668       H  0.41669327  0.30739042  0.33482163    -0.00600
H1669       H  0.40588772  0.28328572  0.32268908     0.00900
H1670       H  0.49435671  0.31085018  0.36846051     0.04600
H1671       H  0.49549421  0.30382580  0.32278689     0.06500
H1672       H  0.48237704  0.28664198  0.35662998     0.07400
C1673       C  0.58739737  0.41320933  0.27229709    -0.22200
C1674       C  0.57573642  0.40651458  0.24202341     0.09700
C1675       C  0.58041326  0.41746819  0.21050358     0.10100
C1676       C  0.59682523  0.43493289  0.20980734    -0.17200
C1677       C  0.60910956  0.44189848  0.23980953    -0.27600
C1678       C  0.60405044  0.43053371  0.27173280     0.18500
C1679       C  0.55884082  0.38775188  0.24340720     0.12400
C1680       C  0.56828752  0.41046085  0.17705908    -0.11900
H1681       H  0.59989471  0.44255747  0.18480382     0.12700
C1682       C  0.61567162  0.43552639  0.30589684    -0.22800
H1683       H  0.58362643  0.40460235  0.29646035     0.08300
C1684       C  0.55959398  0.37190039  0.23858571     0.04700
C1685       C  0.54309788  0.35448118  0.23785131    -0.20000
C1686       C  0.52553998  0.35224198  0.24193026    -0.12300
C1687       C  0.52514180  0.36861011  0.24672483     0.13400
C1688       C  0.54175126  0.38593804  0.24767227    -0.22700
C1689       C  0.57785401  0.37343194  0.23330817    -0.05800
H1690       H  0.54447007  0.34289295  0.23320097     0.14900
C1691       C  0.50775094  0.36894942  0.25048266    -0.16000
H1692       H  0.54136462  0.39830543  0.25113559     0.09200
H1693       H  0.61873003  0.42468395  0.31144580     0.07100
H1694       H  0.60779561  0.43614398  0.32937067     0.08300
H1695       H  0.62908602  0.44877493  0.30481809     0.07400
H1696       H  0.55439232  0.40778436  0.18358268     0.02200
H1697       H  0.56686002  0.39744893  0.16754048     0.02700
H1698       H  0.57411791  0.42057359  0.15427301     0.06200
H1699       H  0.57605355  0.35971172  0.22922256     0.05200
H1700       H  0.58669581  0.37988088  0.25770339    -0.00600
H1701       H  0.58503893  0.38205668  0.20895493     0.00900
H1702       H  0.50800666  0.37543021  0.27690798     0.04600
H1703       H  0.49480734  0.35532263  0.24960543     0.06500
H1704       H  0.50717713  0.37731940  0.22800644     0.07400
C1705       C  0.66167596  0.53470605  0.42081965    -0.22200
C1706       C  0.67053790  0.54124456  0.38707026     0.09700
C1707       C  0.68487485  0.55992752  0.38339416     0.10100
C1708       C  0.69005605  0.57171422  0.41367125    -0.17200
C1709       C  0.68135453  0.56528462  0.44785131    -0.27600
C1710       C  0.66691388  0.54641089  0.45135765     0.18500
C1711       C  0.66493544  0.52817746  0.35609779     0.12400
C1712       C  0.69491916  0.56731825  0.34763770    -0.11900
H1713       H  0.70116425  0.58604745  0.41057972     0.12700
C1714       C  0.65688911  0.53836535  0.48689102    -0.22800
H1715       H  0.65068941  0.52027819  0.42327710     0.08300
C1716       C  0.67116440  0.51594413  0.35328656     0.04700
C1717       C  0.66563698  0.50389732  0.32341077    -0.20000
C1718       C  0.65414803  0.50390049  0.29624926    -0.12300
C1719       C  0.64802511  0.51625741  0.29881250     0.13400
C1720       C  0.65346406  0.52823023  0.32886745    -0.22700
C1721       C  0.68368944  0.51565685  0.38172124    -0.05800
H1722       H  0.66996086  0.49412758  0.32164585     0.14900
C1723       C  0.63592965  0.51727050  0.27030628    -0.16000
H1724       H  0.64878927  0.53771995  0.33104171     0.09200
H1725       H  0.66675305  0.53945661  0.50789964     0.07100
H1726       H  0.64587199  0.52351090  0.48419508     0.08300
H1727       H  0.65022698  0.54580140  0.49608731     0.07400
H1728       H  0.68505786  0.56581149  0.32620419     0.02200
H1729       H  0.70135042  0.55952157  0.33939412     0.02700
H1730       H  0.70602154  0.58217693  0.34954938     0.06200
H1731       H  0.68751427  0.50547734  0.37496753     0.05200
H1732       H  0.67663118  0.51186190  0.40863877    -0.00600
H1733       H  0.69660776  0.52952366  0.38364124     0.00900
H1734       H  0.62269744  0.51395327  0.28297362     0.04600
H1735       H  0.63267815  0.50759453  0.24732675     0.06500
H1736       H  0.64305960  0.53147489  0.25888254     0.07400
C1737       C  0.67630441  0.52275347  0.12506372    -0.22200
C1738       C  0.66440668  0.52878948  0.11676480     0.09700
C1739       C  0.64757133  0.52137953  0.13579924     0.10100
C1740       C  0.64303913  0.50810303  0.16300784    -0.17200
C1741       C  0.65490223  0.50196525  0.17149760    -0.27600
C1742       C  0.67169084  0.50925561  0.15188058     0.18500
C1743       C  0.66985487  0.54283864  0.08783272     0.12400
C1744       C  0.63447239  0.52756708  0.12748023    -0.11900
H1745       H  0.63018483  0.50255432  0.17796270     0.12700
C1746       C  0.68470053  0.50267809  0.15713603    -0.22800
H1747       H  0.68915655  0.52840498  0.11001613     0.08300
C1748       C  0.68102177  0.56184314  0.09561302     0.04700
C1749       C  0.68635710  0.57466777  0.06715396    -0.20000
C1750       C  0.68089315  0.56897295  0.03086895    -0.12300
C1751       C  0.66934269  0.54976178  0.02332203     0.13400
C1752       C  0.66398769  0.53698521  0.05201518    -0.22700
C1753       C  0.68740964  0.56855015  0.13396120    -0.05800
H1754       H  0.69514526  0.58926233  0.07334859     0.14900
C1755       C  0.66262692  0.54244062  0.98538246    -0.16000
H1756       H  0.65532579  0.52229830  0.04650781     0.09200
H1757       H  0.69810976  0.51414505  0.16791493     0.07100
H1758       H  0.68715005  0.49813060  0.13052269     0.08300
H1759       H  0.67918950  0.49078239  0.17582285     0.07400
H1760       H  0.62999228  0.52447295  0.09856894     0.02200
H1761       H  0.64147248  0.54266570  0.13215949     0.02700
H1762       H  0.62193847  0.52044086  0.14502568     0.06200
H1763       H  0.69604116  0.58387247  0.13539061     0.05200
H1764       H  0.69578350  0.56308517  0.14413532    -0.00600
H1765       H  0.67525645  0.56370321  0.15210988     0.00900
H1766       H  0.67456836  0.54623813  0.96728525     0.04600
H1767       H  0.65461929  0.54816255  0.97440974     0.06500
H1768       H  0.65342962  0.52713546  0.98506163     0.07400
C1769       C  0.69698989  0.46055721  0.22585695    -0.22200
C1770       C  0.71126500  0.47338391  0.24855304     0.09700
C1771       C  0.70956374  0.48701566  0.26642201     0.10100
C1772       C  0.69301674  0.48665275  0.26300324    -0.17200
C1773       C  0.67852085  0.47358315  0.24072611    -0.27600
C1774       C  0.68102247  0.46095796  0.22041357     0.18500
C1775       C  0.72857497  0.47339328  0.24942804     0.12400
C1776       C  0.72545257  0.50246677  0.28748767    -0.11900
H1777       H  0.69153531  0.49680910  0.27745283     0.12700
C1778       C  0.66803534  0.44869683  0.19070525    -0.22800
H1779       H  0.69877266  0.45072264  0.21072271     0.08300
C1780       C  0.73317694  0.46608577  0.27907332     0.04700
C1781       C  0.74968241  0.46626912  0.27771336    -0.20000
C1782       C  0.76128638  0.47295952  0.24696366    -0.12300
C1783       C  0.75550052  0.47825366  0.21583237     0.13400
C1784       C  0.73960933  0.47906817  0.21795216    -0.22700
C1785       C  0.72028213  0.45720318  0.31110424    -0.05800
H1786       H  0.75343090  0.46090623  0.30053720     0.14900
C1787       C  0.76472909  0.48161385  0.17919623    -0.16000
H1788       H  0.73537308  0.48350853  0.19430036     0.09200
H1789       H  0.66111917  0.43399373  0.19906718     0.07100
H1790       H  0.67604543  0.45078066  0.16532137     0.08300
H1791       H  0.65746807  0.45184705  0.18346394     0.07400
H1792       H  0.73755534  0.51039924  0.26911673     0.02200
H1793       H  0.72943970  0.49696213  0.31050856     0.02700
H1794       H  0.72186627  0.51218246  0.29888601     0.06200
H1795       H  0.72585059  0.45175288  0.33131801     0.05200
H1796       H  0.70674528  0.44548738  0.30139764    -0.00600
H1797       H  0.71804307  0.46725407  0.32529302     0.00900
H1798       H  0.75461787  0.47147511  0.15928301     0.04600
H1799       H  0.77666937  0.47990312  0.17962024     0.06500
H1800       H  0.76926911  0.49568467  0.16942706     0.07400
C1801       C  0.84095651  0.53704027  0.06867096    -0.22200
C1802       C  0.84484241  0.54430245  0.10406650     0.09700
C1803       C  0.85603705  0.56354346  0.10926840     0.10100
C1804       C  0.86277289  0.57521212  0.07875737    -0.17200
C1805       C  0.85867773  0.56811574  0.04301254    -0.27600
C1806       C  0.84774057  0.54867023  0.03796280     0.18500
C1807       C  0.83643407  0.53153250  0.13536197     0.12400
C1808       C  0.86079340  0.57174132  0.14705340    -0.11900
H1809       H  0.87127085  0.59001771  0.08297395     0.12700
C1810       C  0.84274680  0.53996261  0.00061830    -0.22800
H1811       H  0.83233182  0.52219184  0.06514420     0.08300
C1812       C  0.81927027  0.52708037  0.14984407     0.04700
C1813       C  0.81184535  0.51505766  0.17973694    -0.20000
C1814       C  0.82068402  0.50664514  0.19447361    -0.12300
C1815       C  0.83862402  0.51227452  0.18153773     0.13400
C1816       C  0.84603545  0.52429775  0.15153354    -0.22700
C1817       C  0.80860227  0.53470335  0.13322935    -0.05800
H1818       H  0.79884639  0.51193109  0.19102822     0.14900
C1819       C  0.85088084  0.50696717  0.19990097    -0.16000
H1820       H  0.85958963  0.52839189  0.14115859     0.09200
H1821       H  0.83376920  0.52465891  0.00214790     0.07100
H1822       H  0.85547597  0.54342789  0.98554117     0.08300
H1823       H  0.83509824  0.54497546  0.98525180     0.07400
H1824       H  0.86827582  0.56643397  0.16205413     0.02200
H1825       H  0.84798279  0.56791500  0.16220411     0.02700
H1826       H  0.86975126  0.58705902  0.14628220     0.06200
H1827       H  0.79533782  0.52971907  0.14774900     0.05200
H1828       H  0.80540294  0.53029301  0.10428643    -0.00600
H1829       H  0.81689262  0.55002013  0.13447098     0.00900
H1830       H  0.85290077  0.49784948  0.18161637     0.04600
H1831       H  0.84538894  0.50004247  0.22653163     0.06500
H1832       H  0.86457451  0.51962258  0.20564611     0.07400
C1833       C  0.81262151  0.51870189  0.36916029    -0.22200
C1834       C  0.83191651  0.52910274  0.37223360     0.09700
C1835       C  0.84280315  0.52654949  0.34693287     0.10100
C1836       C  0.83404458  0.51343886  0.31908377    -0.17200
C1837       C  0.81471904  0.50299194  0.31602997    -0.27600
C1838       C  0.80387482  0.50566700  0.34122204     0.18500
C1839       C  0.84043493  0.54252421  0.40236343     0.12400
C1840       C  0.86360163  0.53776766  0.34923140    -0.11900
H1841       H  0.84227371  0.51131378  0.29955175     0.12700
C1842       C  0.78312681  0.49449363  0.33921884    -0.22800
H1843       H  0.80440929  0.52075867  0.38884902     0.08300
C1844       C  0.84255974  0.55996975  0.40044690     0.04700
C1845       C  0.85094362  0.57232920  0.42951870    -0.20000
C1846       C  0.85718861  0.56763921  0.46063578    -0.12300
C1847       C  0.85487549  0.54997272  0.46251455     0.13400
C1848       C  0.84649748  0.53765940  0.43324787    -0.22700
C1849       C  0.83616627  0.56559878  0.36755105    -0.05800
H1850       H  0.85255207  0.58574775  0.42787933     0.14900
C1851       C  0.86138973  0.54399336  0.49467936    -0.16000
H1852       H  0.84469995  0.52413841  0.43429509     0.09200
H1853       H  0.77865898  0.49729660  0.31297886     0.07100
H1854       H  0.77677160  0.49799846  0.36163128     0.08300
H1855       H  0.77803538  0.47958868  0.34141528     0.07400
H1856       H  0.86809184  0.53511140  0.37564401     0.02200
H1857       H  0.86877007  0.55270356  0.34711035     0.02700
H1858       H  0.86999454  0.53423359  0.32694257     0.06200
H1859       H  0.83915269  0.57986166  0.37025480     0.05200
H1860       H  0.82101012  0.55608298  0.36408700    -0.00600
H1861       H  0.84334159  0.56506239  0.34276050     0.00900
H1862       H  0.85889880  0.52998001  0.49068247     0.04600
H1863       H  0.85379983  0.54352767  0.51966011     0.06500
H1864       H  0.87648537  0.55374954  0.49858838     0.07400
C1865       C  0.82632495  0.31697551  0.36006926    -0.22200
C1866       C  0.84129618  0.31522621  0.35167303     0.09700
C1867       C  0.84779908  0.31788352  0.31534341     0.10100
C1868       C  0.83906088  0.32210978  0.28823772    -0.17200
C1869       C  0.82410825  0.32389526  0.29662308    -0.27600
C1870       C  0.81757090  0.32121120  0.33309282     0.18500
C1871       C  0.84910579  0.30946528  0.38102921     0.12400
C1872       C  0.86411036  0.31654949  0.30521702    -0.11900
H1873       H  0.84398816  0.32413877  0.26032722     0.12700
C1874       C  0.80092050  0.32175991  0.34453418    -0.22800
H1875       H  0.82109292  0.31450760  0.38781415     0.08300
C1876       C  0.85913889  0.32118634  0.41053078     0.04700
C1877       C  0.86528103  0.31457252  0.43858440    -0.20000
C1878       C  0.86184399  0.29659303  0.43764717    -0.12300
C1879       C  0.85196400  0.28495568  0.40766764     0.13400
C1880       C  0.84561251  0.29152835  0.38002369    -0.22700
C1881       C  0.86356302  0.34072336  0.41220861    -0.05800
H1882       H  0.87287004  0.32353173  0.46135256     0.14900
C1883       C  0.84744329  0.26538859  0.40498391    -0.16000
H1884       H  0.83763348  0.28252818  0.35756662     0.09200
H1885       H  0.80525172  0.33328447  0.36405643     0.07100
H1886       H  0.79074297  0.30856700  0.35824495     0.08300
H1887       H  0.79362837  0.32344328  0.32147382     0.07400
H1888       H  0.86088643  0.30236086  0.31032675     0.02200
H1889       H  0.87631493  0.32652750  0.32170016     0.02700
H1890       H  0.86779466  0.31975029  0.27591732     0.06200
H1891       H  0.87207468  0.34819447  0.43647047     0.05200
H1892       H  0.85062070  0.34072021  0.41383514    -0.00600
H1893       H  0.87141033  0.34838908  0.38743409     0.00900
H1894       H  0.83891537  0.25816125  0.38057909     0.04600
H1895       H  0.83952647  0.25740152  0.42943822     0.06500
H1896       H  0.86038162  0.26540709  0.40266558     0.07400
C1897       C  0.85105293  0.32844208  0.13636854    -0.22200
C1898       C  0.83909450  0.31470748  0.11162970     0.09700
C1899       C  0.81979904  0.30633502  0.11541521     0.10100
C1900       C  0.81287844  0.31175248  0.14418558    -0.17200
C1901       C  0.82481213  0.32538967  0.16906828    -0.27600
C1902       C  0.84414654  0.33386810  0.16520007     0.18500
C1903       C  0.84701330  0.30877536  0.08279050     0.12400
C1904       C  0.80655130  0.29165812  0.08917388    -0.11900
H1905       H  0.79805817  0.30521588  0.14751780     0.12700
C1906       C  0.85780439  0.34828090  0.19139117    -0.22800
H1907       H  0.86586122  0.33475525  0.13347942     0.08300
C1908       C  0.85314353  0.31814528  0.04917858     0.04700
C1909       C  0.86019518  0.31173452  0.02250223    -0.20000
C1910       C  0.86136316  0.29617101  0.02861346    -0.12300
C1911       C  0.85524607  0.28684943  0.06270312     0.13400
C1912       C  0.84818415  0.29333262  0.08923910    -0.22700
C1913       C  0.85206679  0.33480325  0.04141462    -0.05800
H1914       H  0.86478428  0.31894519  0.99662820     0.14900
C1915       C  0.85567371  0.26987378  0.07137388    -0.16000
H1916       H  0.84338080  0.28623283  0.11520916     0.09200
H1917       H  0.86719149  0.36129478  0.17634706     0.07100
H1918       H  0.86616683  0.34335694  0.20413912     0.08300
H1919       H  0.85109166  0.35141445  0.21358549     0.07400
H1920       H  0.80820836  0.27967095  0.09014848     0.02200
H1921       H  0.80940234  0.29733690  0.06103235     0.02700
H1922       H  0.79193768  0.28665473  0.09590622     0.06200
H1923       H  0.85734861  0.34047807  0.01373015     0.05200
H1924       H  0.86048280  0.34581755  0.06164192    -0.00600
H1925       H  0.83747426  0.33096484  0.04321520     0.00900
H1926       H  0.87015550  0.27332177  0.07097557     0.04600
H1927       H  0.84724960  0.25882515  0.05119656     0.06500
H1928       H  0.84992433  0.26428801  0.09888534     0.07400
C1929       C  0.81847751  0.39630237  0.23825428    -0.22200
C1930       C  0.80140489  0.39467067  0.24129708     0.09700
C1931       C  0.78509378  0.37704907  0.24178732     0.10100
C1932       C  0.78620890  0.36136214  0.23895739    -0.17200
C1933       C  0.80333322  0.36259306  0.23587318    -0.27600
C1934       C  0.81980289  0.38068701  0.23601994     0.18500
C1935       C  0.80088998  0.41161359  0.24456921     0.12400
C1936       C  0.76645286  0.37478720  0.24619354    -0.11900
H1937       H  0.77332187  0.34827960  0.24010553     0.12700
C1938       C  0.83923817  0.38460122  0.23446435    -0.22800
H1939       H  0.83098772  0.40999177  0.23814754     0.08300
C1940       C  0.80500867  0.42136336  0.27762567     0.04700
C1941       C  0.80400776  0.43715273  0.27955438    -0.20000
C1942       C  0.79909084  0.44374460  0.24904520    -0.12300
C1943       C  0.79401289  0.43306203  0.21623822     0.13400
C1944       C  0.79542891  0.41750864  0.21444377    -0.22700
C1945       C  0.81013785  0.41487600  0.31114768    -0.05800
H1946       H  0.80672067  0.44381120  0.30568994     0.14900
C1947       C  0.78679619  0.43709845  0.18223372    -0.16000
H1948       H  0.79189506  0.40963475  0.18930104     0.09200
H1949       H  0.84703985  0.39278294  0.25880744     0.07100
H1950       H  0.84630888  0.39282142  0.20962604     0.08300
H1951       H  0.84016891  0.37227467  0.23404276     0.07400
H1952       H  0.76384948  0.38141517  0.22300377     0.02200
H1953       H  0.76610258  0.38132784  0.27209227     0.02700
H1954       H  0.75502273  0.36001812  0.24695039     0.06200
H1955       H  0.81260185  0.42385776  0.33510454     0.05200
H1956       H  0.82298993  0.41501464  0.30596553    -0.00600
H1957       H  0.79877810  0.40060506  0.31816225     0.00900
H1958       H  0.79652267  0.44016551  0.15927914     0.04600
H1959       H  0.78474097  0.44870499  0.18464685     0.06500
H1960       H  0.77313220  0.42473513  0.17505109     0.07400
C1961       C  0.70775284  0.23599236  0.25832414    -0.22200
C1962       C  0.71920239  0.23906623  0.22829308     0.09700
C1963       C  0.71348626  0.22524802  0.20146715     0.10100
C1964       C  0.69598253  0.20892940  0.20458950    -0.17200
C1965       C  0.68472451  0.20554566  0.23517490    -0.27600
C1966       C  0.69067585  0.21932756  0.26242410     0.18500
C1967       C  0.73715799  0.25687625  0.22608206     0.12400
C1968       C  0.72603181  0.22741594  0.17032639    -0.11900
H1969       H  0.69093579  0.19889722  0.18276575     0.12700
C1970       C  0.67965556  0.21696210  0.29640897    -0.22800
H1971       H  0.71231072  0.24663002  0.27899906     0.08300
C1972       C  0.73943345  0.27156713  0.20452744     0.04700
C1973       C  0.75639386  0.28855405  0.20522235    -0.20000
C1974       C  0.77077334  0.29168714  0.22880714    -0.12300
C1975       C  0.76822835  0.27690565  0.25101349     0.13400
C1976       C  0.75154983  0.25963418  0.24877792    -0.22700
C1977       C  0.72362638  0.26973378  0.18263948    -0.05800
H1978       H  0.75815907  0.29973341  0.18819974     0.14900
C1979       C  0.78213221  0.27928635  0.27919415    -0.16000
H1980       H  0.74939634  0.24831801  0.26589317     0.09200
H1981       H  0.67575077  0.22740568  0.29668321     0.07100
H1982       H  0.68822130  0.21903423  0.32083659     0.08300
H1983       H  0.66691705  0.20307629  0.29880797     0.07400
H1984       H  0.73899860  0.22926913  0.18133493     0.02200
H1985       H  0.72954684  0.23959231  0.15343143     0.02700
H1986       H  0.71948100  0.21507023  0.15232505     0.06200
H1987       H  0.72765217  0.28278171  0.16825919     0.05200
H1988       H  0.71189573  0.26624619  0.20112798    -0.00600
H1989       H  0.71889644  0.25871547  0.16186622     0.00900
H1990       H  0.77650056  0.26701194  0.29726754     0.04600
H1991       H  0.78581147  0.29128037  0.29675271     0.06500
H1992       H  0.79460001  0.28099938  0.26607034     0.07400
C1993       C  0.66329420  0.10327033  0.09081641    -0.22200
C1994       C  0.66282228  0.11923573  0.08628428     0.09700
C1995       C  0.66556069  0.12718829  0.05133683     0.10100
C1996       C  0.66940938  0.11934018  0.02177270    -0.17200
C1997       C  0.67075431  0.10383516  0.02649332    -0.27600
C1998       C  0.66690767  0.09524439  0.06124092     0.18500
C1999       C  0.65999458  0.12776783  0.11868611     0.12400
C2000       C  0.66499040  0.14428510  0.04555070    -0.11900
H2001       H  0.67228575  0.12590140  0.99521434     0.12700
C2002       C  0.66600612  0.07742203  0.06809765    -0.22800
H2003       H  0.66080021  0.09702140  0.11764348     0.08300
C2004       C  0.64230362  0.12301473  0.12983248     0.04700
C2005       C  0.64050938  0.13217471  0.15968333    -0.20000
C2006       C  0.65601323  0.14658343  0.17859820    -0.12300
C2007       C  0.67375426  0.14974374  0.16924025     0.13400
C2008       C  0.67538693  0.14063009  0.13886532    -0.22700
C2009       C  0.62529058  0.10827286  0.11010502    -0.05800
H2010       H  0.62662953  0.12770670  0.16819717     0.14900
C2011       C  0.69114774  0.16165740  0.19085420    -0.16000
H2012       H  0.68884227  0.14341120  0.13076633     0.09200
H2013       H  0.65254940  0.06730689  0.08108057     0.07100
H2014       H  0.67733970  0.07999847  0.08679764     0.08300
H2015       H  0.66689274  0.07084092  0.04284142     0.07400
H2016       H  0.67577134  0.15576490  0.06245832     0.02200
H2017       H  0.65121619  0.14153531  0.05348068     0.02700
H2018       H  0.66752533  0.14878428  0.01657238     0.06200
H2019       H  0.61241372  0.10620747  0.12224464     0.05200
H2020       H  0.62454887  0.09494726  0.11151982    -0.00600
H2021       H  0.62585257  0.11220842  0.08106560     0.00900
H2022       H  0.68959433  0.15556253  0.21833665     0.04600
H2023       H  0.69456549  0.17597458  0.19229921     0.06500
H2024       H  0.70334289  0.16239021  0.17826954     0.07400
C2025       C  0.65805356  0.11662350  0.41561797    -0.22200
C2026       C  0.66689655  0.11985476  0.38179333     0.09700
C2027       C  0.68012394  0.11508176  0.37654373     0.10100
C2028       C  0.68462848  0.10761547  0.40571808    -0.17200
C2029       C  0.67632041  0.10490987  0.44028326    -0.27600
C2030       C  0.66255275  0.10921788  0.44501969     0.18500
C2031       C  0.66309699  0.12955450  0.35315903     0.12400
C2032       C  0.68961105  0.11806602  0.34022471    -0.11900
H2033       H  0.69504236  0.10425967  0.40157858     0.12700
C2034       C  0.65264462  0.10636381  0.48079200    -0.22800
H2035       H  0.64788514  0.12036333  0.41921147     0.08300
C2036       C  0.64779679  0.12011728  0.32958153     0.04700
C2037       C  0.64453841  0.13022441  0.30392440    -0.20000
C2038       C  0.65642071  0.14950070  0.30096645    -0.12300
C2039       C  0.67205355  0.15883156  0.32411102     0.13400
C2040       C  0.67506141  0.14872546  0.35008707    -0.22700
C2041       C  0.63509995  0.09941995  0.33127922    -0.05800
H2042       H  0.63277932  0.12303442  0.28572631     0.14900
C2043       C  0.68567185  0.17937405  0.32301253    -0.16000
H2044       H  0.68685001  0.15587343  0.36824814     0.09200
H2045       H  0.64211321  0.11013999  0.47896693     0.07100
H2046       H  0.66268297  0.11517386  0.50221503     0.08300
H2047       H  0.64538932  0.09159690  0.48888146     0.07400
H2048       H  0.69740725  0.13297250  0.33307744     0.02200
H2049       H  0.67914702  0.11013609  0.31877189     0.02700
H2050       H  0.69950516  0.11344192  0.34061441     0.06200
H2051       H  0.62392683  0.09419369  0.31059231     0.05200
H2052       H  0.62859055  0.09522048  0.35867849    -0.00600
H2053       H  0.64310916  0.09286724  0.32608218     0.00900
H2054       H  0.68597662  0.18548125  0.34993663     0.04600
H2055       H  0.68220776  0.18629777  0.30227412     0.06500
H2056       H  0.69968927  0.18228373  0.31676280     0.07400
C2057       C  0.59470517  0.17570127  0.26801184    -0.22200
C2058       C  0.58083034  0.16534548  0.24246953     0.09700
C2059       C  0.58353784  0.15510136  0.21605286     0.10100
C2060       C  0.60029940  0.15579802  0.21522552    -0.17200
C2061       C  0.61486032  0.16674409  0.23993659    -0.27600
C2062       C  0.61151782  0.17643907  0.26762077     0.18500
C2063       C  0.56344939  0.16526766  0.24425415     0.12400
C2064       C  0.56850408  0.14302218  0.18917183    -0.11900
H2065       H  0.60137165  0.14716088  0.19542794     0.12700
C2066       C  0.62524365  0.18762519  0.29742079    -0.22800
H2067       H  0.59230061  0.18333310  0.28848702     0.08300
C2068       C  0.55014881  0.15555313  0.27161769     0.04700
C2069       C  0.53400792  0.15602035  0.27232115    -0.20000
C2070       C  0.53051444  0.16593221  0.24612546    -0.12300
C2071       C  0.54369229  0.17478433  0.21726286     0.13400
C2072       C  0.56009510  0.17476542  0.21757902    -0.22700
C2073       C  0.55273353  0.14421115  0.29958443    -0.05800
H2074       H  0.52401452  0.14787757  0.29303880     0.14900
C2075       C  0.54121207  0.18414880  0.18484459    -0.16000
H2076       H  0.57026682  0.18193192  0.19615866     0.09200
H2077       H  0.62907611  0.17912828  0.31308965     0.07100
H2078       H  0.61943339  0.19293479  0.31745785     0.08300
H2079       H  0.63771333  0.19991258  0.28596670     0.07400
H2080       H  0.56537211  0.15159553  0.17175582     0.02200
H2081       H  0.55579881  0.13269090  0.20409648     0.02700
H2082       H  0.57259936  0.13544324  0.17093356     0.06200
H2083       H  0.54077042  0.13698609  0.31854319     0.05200
H2084       H  0.56526224  0.15325660  0.31613358    -0.00600
H2085       H  0.55427786  0.13360557  0.28560921     0.00900
H2086       H  0.55216652  0.19909216  0.18509801     0.04600
H2087       H  0.52767414  0.18279239  0.18344410     0.06500
H2088       H  0.54255925  0.17796363  0.15931788     0.07400
C2089       C  0.50762901  0.23369914  0.26133052    -0.22200
C2090       C  0.49431912  0.23292294  0.23793403     0.09700
C2091       C  0.48361021  0.21724783  0.21585034     0.10100
C2092       C  0.48639336  0.20257342  0.21789822    -0.17200
C2093       C  0.49965410  0.20316297  0.24144389    -0.27600
C2094       C  0.51049595  0.21905164  0.26347640     0.18500
C2095       C  0.49240451  0.24906554  0.23614453     0.12400
C2096       C  0.46899488  0.21584789  0.19073022    -0.11900
H2097       H  0.47800059  0.19046246  0.20115139     0.12700
C2098       C  0.52472146  0.22068997  0.29008967    -0.22800
H2099       H  0.51587860  0.24593546  0.27792345     0.08300
C2100       C  0.48366505  0.25295776  0.26421904     0.04700
C2101       C  0.48340485  0.26917600  0.26230209    -0.20000
C2102       C  0.49195802  0.28162941  0.23330196    -0.12300
C2103       C  0.50012440  0.27738546  0.20456724     0.13400
C2104       C  0.50023818  0.26111096  0.20639420    -0.22700
C2105       C  0.47471329  0.24005843  0.29614867    -0.05800
H2106       H  0.47702464  0.27244795  0.28406911     0.14900
C2107       C  0.50846611  0.28978085  0.17170442    -0.16000
H2108       H  0.50679635  0.25790831  0.18487196     0.09200
H2109       H  0.52982281  0.23285837  0.30826130     0.07100
H2110       H  0.51876313  0.20824566  0.30766058     0.08300
H2111       H  0.53690197  0.22262464  0.27518100     0.07400
H2112       H  0.47543543  0.22705558  0.17007903     0.02200
H2113       H  0.45869395  0.21708608  0.20678835     0.02700
H2114       H  0.46157098  0.20243418  0.17601298     0.06200
H2115       H  0.46825478  0.24505793  0.31531657     0.05200
H2116       H  0.48521035  0.23888806  0.31148000    -0.00600
H2117       H  0.46377912  0.22617123  0.28620685     0.00900
H2118       H  0.52069738  0.30331523  0.17969692     0.04600
H2119       H  0.49806182  0.29195980  0.15880971     0.06500
H2120       H  0.51310421  0.28366917  0.15090711     0.07400
C2121       C  0.41265152  0.11684152  0.39035514    -0.22200
C2122       C  0.43136465  0.12605839  0.39961127     0.09700
C2123       C  0.43655879  0.12744419  0.43648607     0.10100
C2124       C  0.42278818  0.11971823  0.46355269    -0.17200
C2125       C  0.40389985  0.11070410  0.45460864    -0.27600
C2126       C  0.39880229  0.10909689  0.41721657     0.18500
C2127       C  0.44525086  0.13436304  0.37001624     0.12400
C2128       C  0.45663390  0.13719693  0.44718123    -0.11900
H2129       H  0.42686424  0.12095733  0.49190198     0.12700
C2130       C  0.37892676  0.09931146  0.40493808    -0.22800
H2131       H  0.40890317  0.11582377  0.36181048     0.08300
C2132       C  0.45126341  0.12409118  0.35147035     0.04700
C2133       C  0.46414157  0.13244258  0.32305802    -0.20000
C2134       C  0.47099508  0.15076442  0.31249253    -0.12300
C2135       C  0.46499254  0.16109579  0.33129330     0.13400
C2136       C  0.45212296  0.15269069  0.35982786    -0.22700
C2137       C  0.44404075  0.10432128  0.36162077    -0.05800
H2138       H  0.46882235  0.12458136  0.30879712     0.14900
C2139       C  0.47262971  0.18113413  0.32280552    -0.16000
H2140       H  0.44740672  0.16043985  0.37442395     0.09200
H2141       H  0.37131091  0.08473054  0.41437742     0.07100
H2142       H  0.37774522  0.09912621  0.37473884     0.08300
H2143       H  0.37231213  0.10649593  0.41587654     0.07400
H2144       H  0.46400307  0.15182590  0.43810719     0.02200
H2145       H  0.46312939  0.13032823  0.43416602     0.02700
H2146       H  0.45833352  0.13702079  0.47718488     0.06200
H2147       H  0.45021602  0.09830972  0.34437705     0.05200
H2148       H  0.42880462  0.09583515  0.35800801    -0.00600
H2149       H  0.44741006  0.10354204  0.39052380     0.00900
H2150       H  0.46864848  0.18268170  0.29496757     0.04600
H2151       H  0.48788760  0.18910888  0.32529462     0.06500
H2152       H  0.46727486  0.18725549  0.34196468     0.07400
C2153       C  0.44205916  0.12191697  0.15897585    -0.22200
C2154       C  0.44430738  0.13304437  0.12882951     0.09700
C2155       C  0.45946639  0.15154245  0.12776478     0.10100
C2156       C  0.47215970  0.15842128  0.15666000    -0.17200
C2157       C  0.46993769  0.14731718  0.18671909    -0.27600
C2158       C  0.45470641  0.12884633  0.18804312     0.18500
C2159       C  0.43072045  0.12515619  0.09853137     0.12400
C2160       C  0.46236340  0.16395847  0.09595892    -0.11900
H2161       H  0.48392160  0.17255716  0.15582110     0.12700
C2162       C  0.45141339  0.11615389  0.21958763    -0.22800
H2163       H  0.43036066  0.10774678  0.15981620     0.08300
C2164       C  0.43120582  0.11345328  0.07203655     0.04700
C2165       C  0.41853434  0.10698247  0.04298851    -0.20000
C2166       C  0.40550370  0.11208316  0.03968875    -0.12300
C2167       C  0.40548597  0.12435284  0.06566025     0.13400
C2168       C  0.41779877  0.13034119  0.09517530    -0.22700
C2169       C  0.44526518  0.10803431  0.07416380    -0.05800
H2170       H  0.41864814  0.09771262  0.02299663     0.14900
C2171       C  0.39349761  0.13228989  0.06226503    -0.16000
H2172       H  0.41773677  0.13964719  0.11516817     0.09200
H2173       H  0.45117931  0.10380612  0.20951304     0.07100
H2174       H  0.43787897  0.11162934  0.23247782     0.08300
H2175       H  0.46222382  0.12277459  0.24086212     0.07400
H2176       H  0.45051627  0.16579896  0.09373621     0.02200
H2177       H  0.46356726  0.15774842  0.07034419     0.02700
H2178       H  0.47514379  0.17785732  0.09912468     0.06200
H2179       H  0.44395660  0.09907535  0.05094037     0.05200
H2180       H  0.44334063  0.10032353  0.09982598    -0.00600
H2181       H  0.45942825  0.12061998  0.07359559     0.00900
H2182       H  0.38361953  0.12750932  0.08546069     0.04600
H2183       H  0.38564782  0.12863735  0.03641582     0.06500
H2184       H  0.40237975  0.14761538  0.06300039     0.07400
C2185       C  0.54026982  0.87011509  0.91234802    -0.22200
C2186       C  0.53857949  0.85588062  0.89041607     0.09700
C2187       C  0.55007488  0.84903252  0.89683097     0.10100
C2188       C  0.56298715  0.85654017  0.92528939    -0.17200
C2189       C  0.56453647  0.87059774  0.94773260    -0.27600
C2190       C  0.55323059  0.87771730  0.94079562     0.18500
C2191       C  0.52468104  0.84832593  0.86080455     0.12400
C2192       C  0.54843317  0.83355304  0.87412691    -0.11900
H2193       H  0.57165452  0.85110145  0.93059935     0.12700
C2194       C  0.55487868  0.89372429  0.96157510    -0.22800
H2195       H  0.53153214  0.87546472  0.90693762     0.08300
C2196       C  0.50588820  0.83515699  0.86797296     0.04700
C2197       C  0.49327268  0.82816112  0.83895066    -0.20000
C2198       C  0.49903812  0.83385786  0.80279761    -0.12300
C2199       C  0.51789382  0.84738279  0.79584756     0.13400
C2200       C  0.53047184  0.85433138  0.82496387    -0.22700
C2201       C  0.49927590  0.82813602  0.90610702    -0.05800
H2202       H  0.47890640  0.81766440  0.84434581     0.14900
C2203       C  0.52522868  0.85529835  0.75854455    -0.16000
H2204       H  0.54493005  0.86460642  0.81971769     0.09200
H2205       H  0.54175459  0.88906367  0.97635876     0.07100
H2206       H  0.55748589  0.90480444  0.94209880     0.08300
H2207       H  0.56638345  0.89996239  0.98143464     0.07400
H2208       H  0.55144494  0.83786806  0.84510466     0.02200
H2209       H  0.53419107  0.82117548  0.87639481     0.02700
H2210       H  0.55826350  0.82963942  0.88318999     0.06200
H2211       H  0.48419490  0.81761696  0.90687224     0.05200
H2212       H  0.50203327  0.83975953  0.92412996    -0.00600
H2213       H  0.50665429  0.82169574  0.91687133     0.00900
H2214       H  0.53226609  0.87057721  0.75951293     0.04600
H2215       H  0.51424515  0.85029913  0.73785256     0.06500
H2216       H  0.53533814  0.85170136  0.74972249     0.07400
C2217       C  0.55413935  0.86026723  0.59744509    -0.22200
C2218       C  0.53545611  0.85029380  0.58767192     0.09700
C2219       C  0.53048269  0.84776069  0.55053333     0.10100
C2220       C  0.54441855  0.85485064  0.52380465    -0.17200
C2221       C  0.56325851  0.86436150  0.53336523    -0.27600
C2222       C  0.56815286  0.86736097  0.57091116     0.18500
C2223       C  0.52138673  0.84229285  0.61703943     0.12400
C2224       C  0.51047053  0.83735795  0.53921903    -0.11900
H2225       H  0.54051170  0.85262929  0.49527818     0.12700
C2226       C  0.58798094  0.87800525  0.58363275    -0.22800
H2227       H  0.55773507  0.86225953  0.62616320     0.08300
C2228       C  0.51588520  0.82510121  0.63294477     0.04700
C2229       C  0.50311274  0.81838808  0.66180461    -0.20000
C2230       C  0.49567167  0.82844205  0.67508372    -0.12300
C2231       C  0.50130028  0.84578516  0.65911767     0.13400
C2232       C  0.51408970  0.85243904  0.63020862    -0.22700
C2233       C  0.52358816  0.81391838  0.61951870    -0.05800
H2234       H  0.49889893  0.80518785  0.67411588     0.14900
C2235       C  0.49466164  0.85780010  0.67324048    -0.16000
H2236       H  0.51862844  0.86574591  0.61802051     0.09200
H2237       H  0.59489228  0.87066425  0.57550206     0.07100
H2238       H  0.58900762  0.87947928  0.61379549     0.08300
H2239       H  0.59541718  0.89212355  0.57177566     0.07400
H2240       H  0.50371814  0.84442235  0.55009643     0.02200
H2241       H  0.50324620  0.82305224  0.55012580     0.02700
H2242       H  0.50894764  0.83655726  0.50906741     0.06200
H2243       H  0.51776363  0.80074568  0.63481854     0.05200
H2244       H  0.53884112  0.82193992  0.62293477    -0.00600
H2245       H  0.52020630  0.81055729  0.59020516     0.00900
H2246       H  0.50189777  0.87152672  0.65966370     0.04600
H2247       H  0.49729916  0.86015587  0.70296285     0.06500
H2248       H  0.47971209  0.85127770  0.66777904     0.07400
C2249       C  0.46226263  0.71385003  0.76806979    -0.22200
C2250       C  0.47441257  0.72750665  0.74343881     0.09700
C2251       C  0.48567974  0.72416656  0.72086305     0.10100
C2252       C  0.48392637  0.70687952  0.72233334    -0.17200
C2253       C  0.47137642  0.69291270  0.74629530    -0.27600
C2254       C  0.46091662  0.69681132  0.77056806     0.18500
C2255       C  0.47479258  0.74505478  0.74179306     0.12400
C2256       C  0.49953641  0.73884660  0.69530299    -0.11900
H2257       H  0.49230646  0.70421981  0.70438997     0.12700
C2258       C  0.44894463  0.68397280  0.80078442    -0.22800
H2259       H  0.45397698  0.71666826  0.78603943     0.08300
C2260       C  0.46264148  0.74685578  0.71886635     0.04700
C2261       C  0.46221640  0.76300913  0.72043616    -0.20000
C2262       C  0.47328031  0.77732864  0.74514494    -0.12300
C2263       C  0.48548811  0.77542189  0.76824638     0.13400
C2264       C  0.48628172  0.75946079  0.76573676    -0.22700
C2265       C  0.44983203  0.73152668  0.69325662    -0.05800
H2266       H  0.45296943  0.76437198  0.70246210     0.14900
C2267       C  0.49702324  0.78915123  0.79745933    -0.16000
H2268       H  0.49537910  0.75787689  0.78376206     0.09200
H2269       H  0.43422247  0.67891524  0.79528470     0.07100
H2270       H  0.45300084  0.69160021  0.82707888     0.08300
H2271       H  0.45039948  0.67201350  0.80465510     0.07400
H2272       H  0.50965349  0.75124381  0.71117516     0.02200
H2273       H  0.49237371  0.74275497  0.67559842     0.02700
H2274       H  0.50728516  0.73401514  0.67961154     0.06200
H2275       H  0.44116619  0.73511363  0.67727593     0.05200
H2276       H  0.44046718  0.71877809  0.70906513    -0.00600
H2277       H  0.45799176  0.72872618  0.67379624     0.00900
H2278       H  0.49405026  0.78197996  0.82418028     0.04600
H2279       H  0.49401101  0.80003038  0.80073798     0.06500
H2280       H  0.51193178  0.79563805  0.79101884     0.07400
C2281       C  0.51912171  0.68867156  0.85610275    -0.22200
C2282       C  0.52497520  0.67665794  0.86472119     0.09700
C2283       C  0.51742611  0.65979332  0.84574973     0.10100
C2284       C  0.50410255  0.65528355  0.81859208    -0.17200
C2285       C  0.49824701  0.66731963  0.80971515    -0.27600
C2286       C  0.50581589  0.68422458  0.82888616     0.18500
C2287       C  0.53849971  0.68170887  0.89472274     0.12400
C2288       C  0.52355093  0.64664698  0.85401241    -0.11900
H2289       H  0.49826349  0.64230572  0.80407096     0.12700
C2290       C  0.49928688  0.69719204  0.82237103    -0.22800
H2291       H  0.52484588  0.70149262  0.87116226     0.08300
C2292       C  0.55759479  0.69429565  0.88940261     0.04700
C2293       C  0.56977855  0.69866789  0.91878874    -0.20000
C2294       C  0.56336770  0.69083268  0.95364468    -0.12300
C2295       C  0.54407574  0.67825004  0.95882827     0.13400
C2296       C  0.53196408  0.67386202  0.92924146    -0.22700
C2297       C  0.56511034  0.70301263  0.85264410    -0.05800
H2298       H  0.58443836  0.70836735  0.91440230     0.14900
C2299       C  0.53596091  0.66946286  0.99526883    -0.16000
H2300       H  0.51722389  0.66428913  0.93301939     0.09200
H2301       H  0.50312767  0.70316454  0.79461267     0.07100
H2302       H  0.50562479  0.70892674  0.84188917     0.08300
H2303       H  0.48407319  0.68965462  0.82592490     0.07400
H2304       H  0.52036508  0.64204488  0.88285960     0.02200
H2305       H  0.53868194  0.65366976  0.84939508     0.02700
H2306       H  0.51645368  0.63418754  0.83635398     0.06200
H2307       H  0.58040481  0.71241122  0.85302154     0.05200
H2308       H  0.55912405  0.71119966  0.84436601    -0.00600
H2309       H  0.56144930  0.69207666  0.83202465     0.00900
H2310       H  0.53918233  0.68032416  0.01578603     0.04600
H2311       H  0.54164756  0.66109509  0.00418813     0.06500
H2312       H  0.52067207  0.66011512  0.99404740     0.07400
C2313       C  0.52182182  0.66234516  0.65483242    -0.22200
C2314       C  0.52334242  0.67435456  0.62711160     0.09700
C2315       C  0.51236048  0.68209366  0.62870965     0.10100
C2316       C  0.49981877  0.67734425  0.65773061    -0.17200
C2317       C  0.49812861  0.66514566  0.68523382    -0.27600
C2318       C  0.50944490  0.65773267  0.68403954     0.18500
C2319       C  0.53656151  0.67861139  0.59673166     0.12400
C2320       C  0.51388214  0.69531847  0.59977920    -0.11900
H2321       H  0.49109671  0.68295517  0.65869304     0.12700
C2322       C  0.50903003  0.64515769  0.71327899    -0.22800
H2323       H  0.53042611  0.65658964  0.65373347     0.08300
C2324       C  0.55528353  0.69303211  0.59942371     0.04700
C2325       C  0.56735782  0.69634796  0.57028107    -0.20000
C2326       C  0.56120615  0.68563987  0.53821673    -0.12300
C2327       C  0.54232815  0.67113898  0.53563376     0.13400
C2328       C  0.53030161  0.66780236  0.56502786    -0.22700
C2329       C  0.56249110  0.70495571  0.63305282    -0.05800
H2330       H  0.58169234  0.70758920  0.57247202     0.14900
C2331       C  0.53472712  0.65893078  0.50244203    -0.16000
H2332       H  0.51588246  0.65669367  0.56332742     0.09200
H2333       H  0.52299883  0.65148979  0.72554182     0.07100
H2334       H  0.50500602  0.63163922  0.70109025     0.08300
H2335       H  0.49920877  0.64260291  0.73558602     0.07400
H2336       H  0.51037884  0.68841965  0.57273678     0.02200
H2337       H  0.52821693  0.70761201  0.59892860     0.02700
H2338       H  0.50435700  0.70013692  0.60518671     0.06200
H2339       H  0.57746189  0.71570074  0.63068123     0.05200
H2340       H  0.56050787  0.69626507  0.65721691    -0.00600
H2341       H  0.55491831  0.71202350  0.63740759     0.00900
H2342       H  0.51992405  0.64787157  0.50595053     0.04600
H2343       H  0.54256039  0.65218233  0.49734963     0.06500
H2344       H  0.53573653  0.66725127  0.47832178     0.07400
C2345       C  0.30516675  0.85865983  0.91375319    -0.22200
C2346       C  0.29168775  0.84743402  0.88800891     0.09700
C2347       C  0.27355596  0.84356505  0.89187924     0.10100
C2348       C  0.26933081  0.85116738  0.92140437    -0.17200
C2349       C  0.28272403  0.86222585  0.94771493    -0.27600
C2350       C  0.30093355  0.86604490  0.94367601     0.18500
C2351       C  0.29668764  0.83915081  0.85821706     0.12400
C2352       C  0.25864060  0.83119518  0.86511597    -0.11900
H2353       H  0.25535812  0.84810965  0.92436046     0.12700
C2354       C  0.31609472  0.87811842  0.97027517    -0.22800
H2355       H  0.31904113  0.86147328  0.91056349     0.08300
C2356       C  0.30367541  0.84816963  0.82440436     0.04700
C2357       C  0.30832409  0.83969138  0.79729368    -0.20000
C2358       C  0.30643426  0.82260384  0.80365454    -0.12300
C2359       C  0.29954875  0.81367016  0.83763494     0.13400
C2360       C  0.29467791  0.82203198  0.86439873    -0.22700
C2361       C  0.30642627  0.86679290  0.81725054    -0.05800
H2362       H  0.31376930  0.84655042  0.77129680     0.14900
C2363       C  0.29719614  0.79536488  0.84668553    -0.16000
H2364       H  0.28937576  0.81519672  0.89046724     0.09200
H2365       H  0.32960635  0.88035354  0.96173822     0.07100
H2366       H  0.31275517  0.87148747  0.99757723     0.08300
H2367       H  0.31771115  0.89184958  0.97211226     0.07400
H2368       H  0.25670014  0.81730046  0.86513220     0.02200
H2369       H  0.26261689  0.83715648  0.83726585     0.02700
H2370       H  0.24519018  0.82951498  0.87212186     0.06200
H2371       H  0.31209928  0.87197343  0.78951688     0.05200
H2372       H  0.31626542  0.87695622  0.83746692    -0.00600
H2373       H  0.29301677  0.86584861  0.81960389     0.00900
H2374       H  0.30583435  0.79702746  0.87071982     0.04600
H2375       H  0.30123341  0.78965503  0.82405146     0.06500
H2376       H  0.28247660  0.78513378  0.85340416     0.07400
C2377       C  0.28933780  0.86124289  0.60354163    -0.22200
C2378       C  0.29736660  0.85111017  0.59499519     0.09700
C2379       C  0.30098206  0.84925401  0.55824673     0.10100
C2380       C  0.29617131  0.85729863  0.53069395    -0.17200
C2381       C  0.28760401  0.86704560  0.53883742    -0.27600
C2382       C  0.28437896  0.86924929  0.57602207     0.18500
C2383       C  0.30138308  0.84203239  0.62480303     0.12400
C2384       C  0.30979119  0.83862467  0.54812577    -0.11900
H2385       H  0.29876573  0.85556800  0.50248466     0.12700
C2386       C  0.27586526  0.88004024  0.58723048    -0.22800
H2387       H  0.28672726  0.86266697  0.63192940     0.08300
C2388       C  0.31820782  0.85139459  0.64413079     0.04700
C2389       C  0.32152412  0.84198804  0.67139146    -0.20000
C2390       C  0.30845530  0.82334715  0.67969976    -0.12300
C2391       C  0.29163146  0.81392822  0.65982445     0.13400
C2392       C  0.28830247  0.82348057  0.63287158    -0.22700
C2393       C  0.33270286  0.87124499  0.63567402    -0.05800
H2394       H  0.33441277  0.84926492  0.68642633     0.14900
C2395       C  0.27756841  0.79360849  0.66495837    -0.16000
H2396       H  0.27552736  0.81635835  0.61743551     0.09200
H2397       H  0.27525006  0.88099159  0.61737412     0.07100
H2398       H  0.26148097  0.87314569  0.57688608     0.08300
H2399       H  0.28425071  0.89433860  0.57633635     0.07400
H2400       H  0.30087630  0.82407130  0.55735821     0.02200
H2401       H  0.32354129  0.84498247  0.56134758     0.02700
H2402       H  0.31177020  0.83857107  0.51817705     0.06200
H2403       H  0.34514721  0.87648551  0.65308607     0.05200
H2404       H  0.32697020  0.88002983  0.64041695    -0.00600
H2405       H  0.33707638  0.87254537  0.60672011     0.00900
H2406       H  0.27104557  0.79081879  0.69221144     0.04600
H2407       H  0.28431989  0.78573457  0.66136570     0.06500
H2408       H  0.26623079  0.78833958  0.64463142     0.07400
C2409       C  0.37280716  0.80058999  0.71470842    -0.22200
C2410       C  0.38501624  0.80825511  0.74414284     0.09700
C2411       C  0.38029589  0.81540863  0.77378923     0.10100
C2412       C  0.36361223  0.81492241  0.77312791    -0.17200
C2413       C  0.35106678  0.80732281  0.74354079    -0.27600
C2414       C  0.35587591  0.79965321  0.71411096     0.18500
C2415       C  0.40251803  0.80835853  0.74371642     0.12400
C2416       C  0.39267431  0.82315356  0.80678152    -0.11900
H2417       H  0.36058588  0.82024975  0.79678799     0.12700
C2418       C  0.34370618  0.78999700  0.68145156    -0.22800
H2419       H  0.37643706  0.79499973  0.69198777     0.08300
C2420       C  0.40257460  0.79206735  0.74831294     0.04700
C2421       C  0.41946598  0.79292710  0.74827387    -0.20000
C2422       C  0.43669145  0.80977411  0.74384716    -0.12300
C2423       C  0.43636288  0.82623143  0.73977846     0.13400
C2424       C  0.41937540  0.82514817  0.73939866    -0.22700
C2425       C  0.38476519  0.77371305  0.75407987    -0.05800
H2426       H  0.41873372  0.78012679  0.75210260     0.14900
C2427       C  0.45337217  0.84546425  0.73588256    -0.16000
H2428       H  0.41928552  0.83767443  0.73592469     0.09200
H2429       H  0.34067832  0.77568317  0.67991452     0.07100
H2430       H  0.35109393  0.79748002  0.65618330     0.08300
H2431       H  0.33029595  0.78890879  0.68177918     0.07400
H2432       H  0.40628534  0.83538449  0.79892276     0.02200
H2433       H  0.39473125  0.81246635  0.81868891     0.02700
H2434       H  0.38668049  0.82758098  0.82826610     0.06200
H2435       H  0.38721680  0.76236614  0.75845393     0.05200
H2436       H  0.37573688  0.77012903  0.72981654    -0.00600
H2437       H  0.37746553  0.77446171  0.77845043     0.00900
H2438       H  0.45277247  0.85151688  0.70953579     0.04600
H2439       H  0.46662969  0.84625114  0.73660980     0.06500
H2440       H  0.45365963  0.85428361  0.75842636     0.07400
C2441       C  0.22674307  0.70171341  0.77398610    -0.22200
C2442       C  0.22867319  0.71490628  0.74874799     0.09700
C2443       C  0.21397349  0.71041705  0.72475679     0.10100
C2444       C  0.19766127  0.69279157  0.72654483    -0.17200
C2445       C  0.19567200  0.67942977  0.75163494    -0.27600
C2446       C  0.21042495  0.68411550  0.77607947     0.18500
C2447       C  0.24642954  0.73314949  0.74728438     0.12400
C2448       C  0.21554209  0.72423856  0.69724665    -0.11900
H2449       H  0.18649781  0.68930913  0.70771105     0.12700
C2450       C  0.20945348  0.67138933  0.80558833    -0.22800
H2451       H  0.23805703  0.70525318  0.79246886     0.08300
C2452       C  0.25043308  0.74753578  0.77180792     0.04700
C2453       C  0.26749725  0.76449313  0.76922234    -0.20000
C2454       C  0.28098095  0.76716142  0.74366542    -0.12300
C2455       C  0.27689939  0.75262834  0.71911128     0.13400
C2456       C  0.25960757  0.73592076  0.72108822    -0.22700
C2457       C  0.23671148  0.74493830  0.80072040    -0.05800
H2458       H  0.27046064  0.77560663  0.78773334     0.14900
C2459       C  0.29040739  0.75456584  0.69021265    -0.16000
H2460       H  0.25639427  0.72478194  0.70237869     0.09200
H2461       H  0.21221453  0.67839197  0.83245098     0.07100
H2462       H  0.22007267  0.66796156  0.80046966     0.08300
H2463       H  0.19583172  0.65841334  0.80764332     0.07400
H2464       H  0.22720804  0.72809642  0.67831165     0.02200
H2465       H  0.21805042  0.73681382  0.71152506     0.02700
H2466       H  0.20273732  0.71858969  0.68077837     0.06200
H2467       H  0.24194755  0.75757322  0.81755157     0.05200
H2468       H  0.23393760  0.73344068  0.81915211    -0.00600
H2469       H  0.22356941  0.74161583  0.78771890     0.00900
H2470       H  0.30235881  0.75499559  0.70288254     0.04600
H2471       H  0.29534429  0.76727628  0.67396727     0.06500
H2472       H  0.28399773  0.74267614  0.67106228     0.07400
C2473       C  0.13876307  0.66354206  0.86514948    -0.22200
C2474       C  0.11950109  0.65494600  0.86413934     0.09700
C2475       C  0.10938430  0.64295932  0.83504164     0.10100
C2476       C  0.11882536  0.63965413  0.80771093    -0.17200
C2477       C  0.13812892  0.64832803  0.80871007    -0.27600
C2478       C  0.14820856  0.66039899  0.83774110     0.18500
C2479       C  0.11051525  0.65936750  0.89341940     0.12400
C2480       C  0.08869298  0.63363929  0.83301275    -0.11900
H2481       H  0.11117760  0.63042211  0.78531462     0.12700
C2482       C  0.16886365  0.66969190  0.84030615    -0.22800
H2483       H  0.14642557  0.67282008  0.88748939     0.08300
C2484       C  0.10808205  0.65199652  0.92885370     0.04700
C2485       C  0.10174764  0.65846626  0.95682985    -0.20000
C2486       C  0.09791762  0.67227039  0.95028348    -0.12300
C2487       C  0.09939651  0.67885829  0.91405499     0.13400
C2488       C  0.10575469  0.67233938  0.88622784    -0.22700
C2489       C  0.11232789  0.63742517  0.93713965    -0.05800
H2490       H  0.10034701  0.65309131  0.98421304     0.14900
C2491       C  0.09442241  0.69275803  0.90414536    -0.16000
H2492       H  0.10756570  0.67779492  0.85879202     0.09200
H2493       H  0.17448372  0.67832510  0.86524106     0.07100
H2494       H  0.17555844  0.67881842  0.81636584     0.08300
H2495       H  0.17244480  0.65902945  0.84128224     0.07400
H2496       H  0.08498314  0.64420014  0.83112120     0.02200
H2497       H  0.08223264  0.62511282  0.85782709     0.02700
H2498       H  0.08289841  0.62449420  0.80877742     0.06200
H2499       H  0.10930298  0.63286059  0.96605201     0.05200
H2500       H  0.12718019  0.64294246  0.93196054    -0.00600
H2501       H  0.10377844  0.62518060  0.91950059     0.00900
H2502       H  0.10403004  0.70617840  0.91763296     0.04600
H2503       H  0.07995042  0.68751719  0.91252584     0.06500
H2504       H  0.09544077  0.69536953  0.87428822     0.07400
C2505       C  0.14384216  0.66309747  0.62016454    -0.22200
C2506       C  0.12869878  0.66478362  0.62692681     0.09700
C2507       C  0.12114183  0.66154800  0.66244179     0.10100
C2508       C  0.12886981  0.65656399  0.69043632    -0.17200
C2509       C  0.14387628  0.65462723  0.68355345    -0.27600
C2510       C  0.15167169  0.65825208  0.64808259     0.18500
C2511       C  0.12128825  0.67043246  0.59659205     0.12400
C2512       C  0.10488865  0.66328314  0.67062842    -0.11900
H2513       H  0.12294451  0.65378417  0.71762775     0.12700
C2514       C  0.16853728  0.65767370  0.63888573    -0.22800
H2515       H  0.14976233  0.66584345  0.59296819     0.08300
C2516       C  0.12887425  0.68922179  0.58821988     0.04700
C2517       C  0.12122200  0.69397309  0.55971855    -0.20000
C2518       C  0.10625866  0.68036057  0.53906838    -0.12300
C2519       C  0.09857495  0.66147459  0.54774265     0.13400
C2520       C  0.10635147  0.65679340  0.57615868    -0.22700
C2521       C  0.14505815  0.70422155  0.60939876    -0.05800
H2522       H  0.12713382  0.70842315  0.55316877     0.14900
C2523       C  0.08171588  0.64587849  0.52907608    -0.16000
H2524       H  0.10047882  0.64237027  0.58293145     0.09200
H2525       H  0.17938960  0.67119252  0.62725773     0.07100
H2526       H  0.16484037  0.64669494  0.61835140     0.08300
H2527       H  0.17467631  0.65506220  0.66286129     0.07400
H2528       H  0.09289427  0.65335583  0.65362652     0.02200
H2529       H  0.10852546  0.67753887  0.66447680     0.02700
H2530       H  0.10069113  0.66032412  0.69975009     0.06200
H2531       H  0.14930358  0.71820059  0.59944562     0.05200
H2532       H  0.15706887  0.70265428  0.60659689    -0.00600
H2533       H  0.14131745  0.70326492  0.63869133     0.00900
H2534       H  0.08549984  0.63700170  0.51446483     0.04600
H2535       H  0.07525805  0.65055954  0.50946250     0.06500
H2536       H  0.07102310  0.63738683  0.54988256     0.07400
C2537       C  0.30404886  0.46195912  0.88114244    -0.22200
C2538       C  0.30086825  0.44461726  0.87177662     0.09700
C2539       C  0.30240877  0.44081939  0.83485596     0.10100
C2540       C  0.30669683  0.45431258  0.80817863    -0.17200
C2541       C  0.30991839  0.47167535  0.81750812    -0.27600
C2542       C  0.30867667  0.47559385  0.85461708     0.18500
C2543       C  0.29498049  0.43033964  0.90071307     0.12400
C2544       C  0.30003535  0.42274446  0.82361586    -0.11900
H2545       H  0.30784084  0.45140706  0.77983388     0.12700
C2546       C  0.31150099  0.49364988  0.86734813    -0.22800
H2547       H  0.30253858  0.46476281  0.90935364     0.08300
C2548       C  0.30685098  0.43212252  0.92937860     0.04700
C2549       C  0.30030977  0.41826068  0.95619125    -0.20000
C2550       C  0.28231580  0.40245404  0.95469590    -0.12300
C2551       C  0.27052161  0.40062695  0.92563571     0.13400
C2552       C  0.27694226  0.41473724  0.89949404    -0.22700
C2553       C  0.32651313  0.44840693  0.93137123    -0.05800
H2554       H  0.30937857  0.41971902  0.97832919     0.14900
C2555       C  0.25100703  0.38414657  0.92222023    -0.16000
H2556       H  0.26780025  0.41362186  0.87780455     0.09200
H2557       H  0.32368019  0.50070438  0.88571229     0.07100
H2558       H  0.29908607  0.49098283  0.88264066     0.08300
H2559       H  0.31364775  0.50307311  0.84468145     0.07400
H2560       H  0.28573050  0.41111539  0.82931439     0.02200
H2561       H  0.30994832  0.42061889  0.83887134     0.02700
H2562       H  0.30265390  0.42248357  0.79399352     0.06200
H2563       H  0.33407827  0.44719850  0.95468358     0.05200
H2564       H  0.32674841  0.46138149  0.93497571    -0.00600
H2565       H  0.33397114  0.44927059  0.90588440     0.00900
H2566       H  0.24368909  0.38546278  0.89857286     0.04600
H2567       H  0.24299115  0.38274930  0.94719621     0.06500
H2568       H  0.25119928  0.37141839  0.91803050     0.07400
C2569       C  0.31409061  0.45032920  0.65122175    -0.22200
C2570       C  0.29748537  0.44443212  0.63291362     0.09700
C2571       C  0.28586032  0.45039186  0.64508400     0.10100
C2572       C  0.29142083  0.46261971  0.67478097    -0.17200
C2573       C  0.30827295  0.46888606  0.69266019    -0.27600
C2574       C  0.31950704  0.46222873  0.68134164     0.18500
C2575       C  0.29229320  0.43147309  0.60186478     0.12400
C2576       C  0.26771879  0.44398135  0.62648080    -0.11900
H2577       H  0.28278698  0.46765369  0.68355288     0.12700
C2578       C  0.33691320  0.46680221  0.70103768    -0.22800
H2579       H  0.32275111  0.44535248  0.64227277     0.08300
C2580       C  0.29838019  0.43780632  0.56603799     0.04700
C2581       C  0.29315776  0.42492153  0.53763205    -0.20000
C2582       C  0.28199536  0.40576940  0.54414991    -0.12300
C2583       C  0.27613258  0.39950976  0.58050463     0.13400
C2584       C  0.28139328  0.41248595  0.60874109    -0.22700
C2585       C  0.31030111  0.45817001  0.55783805    -0.05800
H2586       H  0.29774739  0.42990509  0.51010019     0.14900
C2587       C  0.26424586  0.37929130  0.59016869    -0.16000
H2588       H  0.27693224  0.40782444  0.63649893     0.09200
H2589       H  0.34900728  0.47480252  0.68267232     0.07100
H2590       H  0.33592359  0.45379316  0.70898378     0.08300
H2591       H  0.33931103  0.47479676  0.72642100     0.07400
H2592       H  0.25863819  0.42870221  0.62827559     0.02200
H2593       H  0.27018065  0.44814935  0.59732979     0.02700
H2594       H  0.26035373  0.45002765  0.63928132     0.06200
H2595       H  0.31382524  0.46081391  0.52838026     0.05200
H2596       H  0.32340247  0.46440856  0.57348685    -0.00600
H2597       H  0.30288600  0.46504998  0.56567718     0.00900
H2598       H  0.26119877  0.37714588  0.61986456     0.04600
H2599       H  0.27150411  0.37220159  0.58271498     0.06500
H2600       H  0.25080264  0.37284757  0.57568085     0.07400
C2601       C  0.42042420  0.58788636  0.75783606    -0.22200
C2602       C  0.40351426  0.58610008  0.75052245     0.09700
C2603       C  0.40336845  0.60184919  0.74037211     0.10100
C2604       C  0.42003576  0.61921034  0.73948687    -0.17200
C2605       C  0.43726713  0.62147473  0.74795648    -0.27600
C2606       C  0.43728200  0.60506990  0.75539983     0.18500
C2607       C  0.38619536  0.56742710  0.75092756     0.12400
C2608       C  0.38558722  0.60021721  0.72932955    -0.11900
H2609       H  0.41926544  0.63074075  0.73060360     0.12700
C2610       C  0.45454593  0.60457109  0.76005897    -0.22800
H2611       H  0.42051723  0.57558489  0.76432036     0.08300
C2612       C  0.38138636  0.55523835  0.72135748     0.04700
C2613       C  0.36448541  0.53812959  0.72186003    -0.20000
C2614       C  0.35181567  0.53253464  0.75129444    -0.12300
C2615       C  0.35669489  0.54542231  0.78056003     0.13400
C2616       C  0.37386711  0.56235899  0.78014514    -0.22700
C2617       C  0.39397883  0.56050331  0.68867139    -0.05800
H2618       H  0.36145627  0.52962498  0.69816402     0.14900
C2619       C  0.34434905  0.54238360  0.81276535    -0.16000
H2620       H  0.37749840  0.57198818  0.80254317     0.09200
H2621       H  0.45421266  0.59448097  0.74052066     0.07100
H2622       H  0.45501479  0.60006709  0.78822122     0.08300
H2623       H  0.46756455  0.61782297  0.75474323     0.07400
H2624       H  0.37563766  0.59472168  0.75242019     0.02200
H2625       H  0.37944536  0.59070478  0.70568683     0.02700
H2626       H  0.38782819  0.61376897  0.72130142     0.06200
H2627       H  0.38807124  0.54958304  0.66739008     0.05200
H2628       H  0.40748680  0.56277197  0.69713606    -0.00600
H2629       H  0.39624602  0.57338948  0.67629936     0.00900
H2630       H  0.35104842  0.54182844  0.83822559     0.04600
H2631       H  0.33050403  0.52972580  0.81117335     0.06500
H2632       H  0.34225013  0.55407673  0.81474686     0.07400
C2633       C  0.14414328  0.54265086  0.74183749    -0.22200
C2634       C  0.16047623  0.56003721  0.74001300     0.09700
C2635       C  0.17747456  0.56127439  0.73663799     0.10100
C2636       C  0.17776416  0.54503790  0.73548494    -0.17200
C2637       C  0.16139238  0.52724355  0.73760653    -0.27600
C2638       C  0.14421813  0.52631489  0.74031727     0.18500
C2639       C  0.15937025  0.57676465  0.74087992     0.12400
C2640       C  0.19537161  0.57979659  0.73351103    -0.11900
H2641       H  0.19108181  0.54678036  0.73248701     0.12700
C2642       C  0.12539802  0.50861886  0.74174207    -0.22800
H2643       H  0.13108289  0.54181796  0.74428190     0.08300
C2644       C  0.15302387  0.58193863  0.71069289     0.04700
C2645       C  0.15238721  0.59795764  0.71258298    -0.20000
C2646       C  0.15805148  0.60933785  0.74401130    -0.12300
C2647       C  0.16464865  0.60391468  0.77431089     0.13400
C2648       C  0.16495593  0.58769591  0.77227081    -0.22700
C2649       C  0.14735747  0.57077921  0.67593555    -0.05800
H2650       H  0.14777199  0.60141751  0.68847953     0.14900
C2651       C  0.17180696  0.61463574  0.80951081    -0.16000
H2652       H  0.16984604  0.58361055  0.79543742     0.09200
H2653       H  0.11694990  0.50824820  0.71839879     0.07100
H2654       H  0.11832221  0.50815619  0.76752330     0.08300
H2655       H  0.12560118  0.49592538  0.74049921     0.07400
H2656       H  0.19765197  0.58804856  0.75853153     0.02200
H2657       H  0.19480733  0.58738246  0.70950732     0.02700
H2658       H  0.20745297  0.57838291  0.73006831     0.06200
H2659       H  0.14323267  0.57698692  0.65439217     0.05200
H2660       H  0.13539138  0.55659090  0.68122428    -0.00600
H2661       H  0.15909797  0.57002552  0.66532755     0.00900
H2662       H  0.16324570  0.60579202  0.83263632     0.04600
H2663       H  0.17176257  0.62743606  0.81062468     0.06500
H2664       H  0.18631681  0.61856482  0.81380367     0.07400
C2665       C  0.22880815  0.50618132  0.76353349    -0.22200
C2666       C  0.23040449  0.49405574  0.74056320     0.09700
C2667       C  0.21524998  0.48144225  0.71884214     0.10100
C2668       C  0.19914537  0.48200038  0.71909508    -0.17200
C2669       C  0.19772569  0.49468773  0.74092860    -0.27600
C2670       C  0.21247334  0.50624119  0.76501069     0.18500
C2671       C  0.24776917  0.49419707  0.74161904     0.12400
C2672       C  0.21597999  0.46724860  0.69588644    -0.11900
H2673       H  0.18766413  0.47245968  0.70208319     0.12700
C2674       C  0.21119756  0.51788973  0.79432196    -0.22800
H2675       H  0.24022903  0.51526965  0.78137998     0.08300
C2676       C  0.26227201  0.50468322  0.71666914     0.04700
C2677       C  0.27884843  0.50514214  0.72017170    -0.20000
C2678       C  0.28146715  0.49578854  0.74868699    -0.12300
C2679       C  0.26697267  0.48561432  0.77418652     0.13400
C2680       C  0.25024420  0.48479689  0.76998218    -0.22700
C2681       C  0.26046987  0.51585850  0.68715323    -0.05800
H2682       H  0.28994980  0.51306902  0.70080938     0.14900
C2683       C  0.26933944  0.47671855  0.80738266    -0.16000
H2684       H  0.23914288  0.47717916  0.78952405     0.09200
H2685       H  0.22088633  0.53275793  0.78800388     0.07100
H2686       H  0.21509666  0.51479776  0.82100259     0.08300
H2687       H  0.19707130  0.51505880  0.79796832     0.07400
H2688       H  0.21838283  0.45824678  0.71367014     0.02200
H2689       H  0.22736958  0.47415948  0.67567271     0.02700
H2690       H  0.20286408  0.45833964  0.68077244     0.06200
H2691       H  0.27321430  0.52348862  0.67029133     0.05200
H2692       H  0.25791380  0.52610009  0.69967429    -0.00600
H2693       H  0.24877892  0.50667315  0.66884971     0.00900
H2694       H  0.25726880  0.47110093  0.82607612     0.04600
H2695       H  0.28170349  0.48716763  0.82272986     0.06500
H2696       H  0.27070423  0.46502775  0.79963247     0.07400
C2697       C  0.12436462  0.43916742  0.83303576    -0.22200
C2698       C  0.13324052  0.44635537  0.86646708     0.09700
C2699       C  0.14859975  0.46467939  0.86827924     0.10100
C2700       C  0.15426788  0.47565342  0.83666832    -0.17200
C2701       C  0.14528359  0.46854392  0.80311203    -0.27600
C2702       C  0.13027235  0.44992622  0.80122710     0.18500
C2703       C  0.12660979  0.43394002  0.89855763     0.12400
C2704       C  0.15927138  0.47246694  0.90320469    -0.11900
H2705       H  0.16598723  0.48979978  0.83795849     0.12700
C2706       C  0.11988730  0.44091854  0.76663706    -0.22800
H2707       H  0.11275004  0.42495964  0.83174380     0.08300
C2708       C  0.11366733  0.43335285  0.92336401     0.04700
C2709       C  0.10664437  0.42013860  0.95147288    -0.20000
C2710       C  0.11187859  0.40721306  0.95453202    -0.12300
C2711       C  0.12525310  0.40818387  0.93021116     0.13400
C2712       C  0.13235086  0.42149506  0.90242531    -0.22700
C2713       C  0.10667258  0.44608396  0.91921626    -0.05800
H2714       H  0.09639368  0.41934339  0.97012056     0.14900
C2715       C  0.13269079  0.39574726  0.93303004    -0.16000
H2716       H  0.14233222  0.42206006  0.88330841     0.09200
H2717       H  0.10511656  0.43625817  0.77010088     0.07100
H2718       H  0.12081405  0.42875254  0.76040098     0.08300
H2719       H  0.12533929  0.45027018  0.74301277     0.07400
H2720       H  0.16482767  0.46399776  0.91224237     0.02200
H2721       H  0.15015321  0.47235043  0.92486170     0.02700
H2722       H  0.17109243  0.48693390  0.89964725     0.06200
H2723       H  0.09634192  0.44354980  0.94057567     0.05200
H2724       H  0.09998155  0.44388611  0.89216825    -0.00600
H2725       H  0.11828589  0.46068920  0.92138938     0.00900
H2726       H  0.12886652  0.38701637  0.90820229     0.04600
H2727       H  0.12763055  0.38663619  0.95729458     0.06500
H2728       H  0.14800635  0.40433981  0.93509155     0.07400
C2729       C  0.11767942  0.44502393  0.63637798    -0.22200
C2730       C  0.12952577  0.44185093  0.61587791     0.09700
C2731       C  0.14860146  0.45184267  0.62372771     0.10100
C2732       C  0.15535350  0.46461702  0.65251032    -0.17200
C2733       C  0.14347089  0.46745257  0.67387076    -0.27600
C2734       C  0.12435995  0.45766980  0.66534498     0.18500
C2735       C  0.12157671  0.42800356  0.58623402     0.12400
C2736       C  0.16176099  0.44896967  0.60179546    -0.11900
H2737       H  0.17004144  0.47270892  0.65786540     0.12700
C2738       C  0.11050519  0.45983843  0.68638709    -0.22800
H2739       H  0.10303890  0.43738097  0.62997062     0.08300
C2740       C  0.11348596  0.40904011  0.59335658     0.04700
C2741       C  0.10580629  0.39638235  0.56445793    -0.20000
C2742       C  0.10588795  0.40220361  0.52847754    -0.12300
C2743       C  0.11400499  0.42136334  0.52158399     0.13400
C2744       C  0.12176345  0.43396776  0.55062798    -0.22700
C2745       C  0.11300421  0.40220424  0.63147437    -0.05800
H2746       H  0.09967187  0.38182201  0.57015452     0.14900
C2747       C  0.11458204  0.42880504  0.48401417    -0.16000
H2748       H  0.12796279  0.44860855  0.54565400     0.09200
H2749       H  0.09938786  0.44616169  0.69693953     0.07100
H2750       H  0.10425347  0.46536490  0.66810159     0.08300
H2751       H  0.11662520  0.46916001  0.71004976     0.07400
H2752       H  0.16141601  0.45241605  0.57273276     0.02200
H2753       H  0.15767500  0.43432365  0.60385648     0.02700
H2754       H  0.17621456  0.45782684  0.61169647     0.06200
H2755       H  0.10628033  0.38695675  0.63231112     0.05200
H2756       H  0.10511893  0.40593635  0.64969033    -0.00600
H2757       H  0.12731957  0.40861298  0.64199342     0.00900
H2758       H  0.10029585  0.42276625  0.47360914     0.04600
H2759       H  0.12257947  0.42545760  0.46524269     0.06500
H2760       H  0.12135682  0.44406602  0.48410087     0.07400
loop_ 
_geom_bond_atom_site_label_1 
_geom_bond_atom_site_label_2 
_geom_bond_distance 
_geom_bond_site_symmetry_2 
_ccdc_geom_bond_type 
C1            C2   1.541       .  S
C1            C7   1.537       .  S
C1            C5   1.553       .  S
C1         C2637   1.547       .  S
C2            H9   1.086       .  S
C2            C3   1.364       .  D
C3            C4   1.536       .  S
C3         C2701   1.485       .  S
C4            C8   1.542       .  S
C4            C6   1.536       .  S
C4           H10   1.111       .  S
C5           H11   1.079       .  S
C5            C6   1.369       .  D
C6         C2669   1.492       .  S
C7           H12   1.086       .  S
C7            C8   1.364       .  D
C8         C2733   1.483       .  S
C13          C14   1.541       .  S
C13          C19   1.552       .  S
C13          C17   1.543       .  S
C13        C2614   1.552       .  S
C14          H21   1.086       .  S
C14          C15   1.370       .  D
C15          C16   1.537       .  S
C15        C2678   1.490       .  S
C16          C20   1.531       .  S
C16          C18   1.538       .  S
C16          H22   1.108       .  S
C17          H23   1.086       .  S
C17          C18   1.367       .  D
C18        C2541   1.485       .  S
C19          H24   1.079       .  S
C19          C20   1.363       .  D
C20        C2573   1.485       .  S
C25          C26   1.542       .  S
C25          C31   1.543       .  S
C25          C29   1.551       .  S
C25        C2646   1.548       .  S
C26          H33   1.086       .  S
C26          C27   1.364       .  D
C27          C28   1.535       .  S
C27        C2477   1.480       .  S
C28          C32   1.539       .  S
C28          C30   1.534       .  S
C28          H34   1.111       .  S
C29          H35   1.080       .  S
C29          C30   1.364       .  D
C30        C2509   1.482       .  S
C31          H36   1.086       .  S
C31          C32   1.367       .  D
C32        C2445   1.493       .  S
C37          C38   1.538       .  S
C37          C43   1.551       .  S
C37          C41   1.545       .  S
C37        C2413   1.552       .  S
C38          H45   1.084       .  S
C38          C39   1.366       .  D
C39          C40   1.542       .  S
C39        C2454   1.493       .  S
C40          C44   1.533       .  S
C40          C42   1.540       .  S
C40          H46   1.108       .  S
C41          H47   1.086       .  S
C41          C42   1.371       .  D
C42        C2390   1.494       .  S
C43          H48   1.080       .  S
C43          C44   1.362       .  D
C44        C2358   1.480       .  S
C49          C50   1.545       .  S
C49          C55   1.536       .  S
C49          C53   1.555       .  S
C49        C2605   1.550       .  S
C50          H57   1.086       .  S
C50          C51   1.368       .  D
C51          C52   1.537       .  S
C51        C2285   1.488       .  S
C52          C56   1.536       .  S
C52          C54   1.537       .  S
C52          H58   1.109       .  S
C53          H59   1.081       .  S
C53          C54   1.371       .  D
C54        C2253   1.495       .  S
C55          H60   1.086       .  S
C55          C56   1.363       .  D
C56        C2317   1.482       .  S
C61          C62   1.538       .  S
C61          C67   1.538       .  S
C61          C65   1.554       .  S
C61        C2422   1.550       .  S
C62          H69   1.084       .  S
C62          C63   1.364       .  D
C63          C64   1.540       .  S
C63        C2230   1.487       .  S
C64          C68   1.540       .  S
C64          C66   1.540       .  S
C64          H70   1.111       .  S
C65          H71   1.080       .  S
C65          C66   1.371       .  D
C66        C2262   1.499       .  S
C67          H72   1.086       .  S
C67          C68   1.365       .  D
C68        C2198   1.488       .  S
C73          C74   1.537       .  S
C73          C79   1.552       .  S
C73          C77   1.544       .  S
C73        C2070   1.545       .  S
C74          H81   1.086       .  S
C74          C75   1.360       .  D
C75          C76   1.532       .  S
C75        C2157   1.477       .  S
C76          C80   1.531       .  S
C76          C78   1.538       .  S
C76          H82   1.109       .  S
C77          H83   1.082       .  S
C77          C78   1.370       .  D
C78        C2093   1.489       .  S
C79          H84   1.081       .  S
C79          C80   1.365       .  D
C80        C2134   1.484       .  S
C85          C86   1.550       .  S
C85          C91   1.531       .  S
C85          C89   1.538       .  S
C85        C2061   1.548       .  S
C86          H93   1.077       .  S
C86          C87   1.381       .  D
C87          C88   1.551       .  S
C87        C2006   1.526       .  S
C88          C92   1.545       .  S
C88          C90   1.531       .  S
C88          H94   1.095       .  S
C89          H95   1.086       .  S
C89          C90   1.362       .  D
C90        C2038   1.484       .  S
C91          H96   1.085       .  S
C91          C92   1.360       .  D
C92        C1965   1.482       .  S
C97          C98   1.541       .  S
C97         C103   1.536       .  S
C97         C101   1.554       .  S
C97        C1933   1.544       .  S
C98         H105   1.086       .  S
C98          C99   1.363       .  D
C99         C100   1.532       .  S
C99        C1901   1.477       .  S
C100        C104   1.538       .  S
C100        C102   1.534       .  S
C100        H106   1.105       .  S
C101        H107   1.079       .  S
C101        C102   1.370       .  D
C102       C1974   1.495       .  S
C103        H108   1.087       .  S
C103        C104   1.363       .  D
C104       C1869   1.480       .  S
C109        C110   1.551       .  S
C109        C115   1.540       .  S
C109        C113   1.536       .  S
C109       C1942   1.540       .  S
C110        H117   1.081       .  S
C110        C111   1.363       .  D
C111        C112   1.531       .  S
C111       C1837   1.476       .  S
C112        C116   1.542       .  S
C112        C114   1.542       .  S
C112        H118   1.110       .  S
C113        H119   1.086       .  S
C113        C114   1.361       .  D
C114       C1782   1.482       .  S
C115        H120   1.086       .  S
C115        C116   1.368       .  D
C116       C1814   1.493       .  S
C121        C122   1.552       .  S
C121        C127   1.536       .  S
C121        C125   1.536       .  S
C121       C1677   1.541       .  S
C122        H129   1.080       .  S
C122        C123   1.366       .  D
C123        C124   1.536       .  S
C123       C1741   1.486       .  S
C124        C128   1.538       .  S
C124        C126   1.539       .  S
C124        H130   1.111       .  S
C125        H131   1.086       .  S
C125        C126   1.364       .  D
C126       C1773   1.490       .  S
C127        H132   1.086       .  S
C127        C128   1.363       .  D
C128       C1718   1.475       .  S
C133        C134   1.539       .  S
C133        C139   1.543       .  S
C133        C137   1.549       .  S
C133       C1686   1.544       .  S
C134        H141   1.086       .  S
C134        C135   1.364       .  D
C135        C136   1.535       .  S
C135       C1654   1.477       .  S
C136        C140   1.534       .  S
C136        C138   1.532       .  S
C136        H142   1.111       .  S
C137        H143   1.080       .  S
C137        C138   1.363       .  D
C138       C2102   1.477       .  S
C139        H144   1.086       .  S
C139        C140   1.366       .  D
C140       C1622   1.485       .  S
In145       O147   2.236   1_556  S
In145       O148   2.262       .  S
In145       O156   2.234       .  S
In145       O150   2.253       .  S
In145       O152   2.257       .  S
In145       O153   2.258       .  S
In145       O154   2.232       .  S
In145       O157   2.234       .  S
C146        O152   1.264       .  A
C146        O154   1.261       .  A
C146       C1549   1.477       .  S
O147        C155   1.259       .  A
O148        C155   1.263   1_556  A
C149        O156   1.260       .  A
C149        O150   1.262       .  A
C149       C1590   1.475       .  S
C151        O153   1.264       .  A
C151        O157   1.262       .  A
C151       C1517   1.482       .  S
C155       C2166   1.479       .  S
In158       O160   2.252   1_554  S
In158       O161   2.250       .  S
In158       O169   2.232       .  S
In158       O163   2.249       .  S
In158       O165   2.255       .  S
In158       O166   2.254       .  S
In158       O167   2.215       .  S
In158       O170   2.239       .  S
C159        O165   1.264       .  A
C159        O167   1.260       .  A
C159       C1485   1.472       .  S
O160        C168   1.260       .  A
O161        C168   1.262   1_554  A
C162        O169   1.261       .  A
C162        O163   1.262       .  A
C162       C1581   1.488       .  S
C164        O166   1.263       .  A
C164        O170   1.261       .  A
C164       C1453   1.477       .  S
C168       C2349   1.488       .  S
In171       O173   2.243   1_556  S
In171       O174   2.257       .  S
In171       O182   2.247       .  S
In171       O176   2.262       .  S
In171       O178   2.253       .  S
In171       O179   2.265       .  S
In171       O180   2.234       .  S
In171       O183   2.239       .  S
C172        O178   1.264       .  A
C172        O180   1.261       .  A
C172       C1421   1.477       .  S
O173        C181   1.259   1_554  A
O174        C181   1.263       .  A
C175        O182   1.260       .  A
C175        O176   1.261       .  A
C175       C1389   1.482       .  S
C177        O179   1.263       .  A
C177        O183   1.261       .  A
C177       C1357   1.482       .  S
C181       C1910   1.491   1_556  S
In184       O186   2.233   1_554  S
In184       O187   2.250       .  S
In184       O195   2.223       .  S
In184       O189   2.268       .  S
In184       O191   2.262       .  S
In184       O192   2.239       .  S
In184       O193   2.223       .  S
In184       O196   2.234       .  S
C185        O191   1.265       .  A
C185        O193   1.259       .  A
C185       C1325   1.476       .  S
O186        C194   1.261       .  A
O187        C194   1.262   1_554  A
C188        O195   1.259       .  A
C188        O189   1.266       .  A
C188       C1398   1.489       .  S
C190        O192   1.263       .  A
C190        O196   1.263       .  A
C190       C1302   1.480       .  S
C194       C2710   1.474       .  S
In197       O199   2.235       .  S
In197       O200   2.255       .  S
In197       O208   2.236       .  S
In197       O202   2.237       .  S
In197       O204   2.250       .  S
In197       O205   2.255       .  S
In197       O206   2.232       .  S
In197       O209   2.232   1_556  S
C198        O204   1.262       .  A
C198        O206   1.260       .  A
C198       C1430   1.476       .  S
O199        C207   1.260       .  A
O200        C207   1.262       .  A
C201        O208   1.262       .  A
C201        O202   1.261       .  A
C201       C1270   1.486       .  S
C203        O205   1.264       .  A
C203        O209   1.259   1_556  A
C203       C1997   1.479   1_556  S
C207       C1229   1.482       .  S
In210       O212   2.229       .  S
In210       O213   2.244       .  S
In210       O221   2.223       .  S
In210       O215   2.253       .  S
In210       O217   2.248       .  S
In210       O218   2.251       .  S
In210       O219   2.219       .  S
In210       O222   2.231   1_554  S
C211        O217   1.266       .  A
C211        O219   1.261       .  A
C211       C1206   1.478       .  S
O212        C220   1.262       .  A
O213        C220   1.265       .  A
C214        O221   1.260       .  A
C214        O215   1.263       .  A
C214       C1261   1.471       .  S
C216        O218   1.264   1_556  A
C216        O222   1.260       .  A
C216       C2189   1.476       .  S
C220       C1165   1.480       .  S
In223       O225   2.235       .  S
In223       O226   2.262       .  S
In223       O234   2.237       .  S
In223       O228   2.249       .  S
In223       O230   2.250       .  S
In223       O231   2.258       .  S
In223       O232   2.234       .  S
In223       O235   2.230   1_554  S
C224        O230   1.262       .  A
C224        O232   1.260       .  A
C224       C1494   1.478       .  S
O225        C233   1.259       .  A
O226        C233   1.262       .  A
C227        O234   1.262       .  A
C227        O228   1.263       .  A
C227       C1142   1.478       .  S
C229        O231   1.263   1_556  A
C229        O235   1.258       .  A
C229       C2486   1.488       .  S
C233       C1101   1.474       .  S
In236       O238   2.231       .  S
In236       O239   2.248       .  S
In236       O247   2.221       .  S
In236       O241   2.263       .  S
In236       O243   2.270       .  S
In236       O244   2.243       .  S
In236       O245   2.221       .  S
In236       O248   2.233   1_556  S
C237        O243   1.265       .  A
C237        O245   1.259       .  A
C237       C1069   1.480       .  S
O238        C246   1.262       .  A
O239        C246   1.263       .  A
C240        O247   1.259       .  A
C240        O241   1.267       .  A
C240       C1133   1.491       .  S
C242        O244   1.262   1_554  A
C242        O248   1.262       .  A
C242       C1805   1.487       .  S
C246       C1037   1.476       .  S
In249       O251   2.240   1_556  S
In249       O252   2.241       .  S
In249       O260   2.234       .  S
In249       O254   2.269       .  S
In249       O256   2.263       .  S
In249       O257   2.241       .  S
In249       O258   2.227       .  S
In249       O261   2.241       .  S
C250        O256   1.265       .  A
C250        O258   1.259       .  A
C250       C1078   1.477       .  S
O251        C259   1.263       .  A
O252        C259   1.261   1_556  A
C253        O260   1.258       .  A
C253        O254   1.265       .  A
C253       C1005   1.490       .  S
C255        O257   1.261       .  A
C255        O261   1.261       .  A
C255        C973   1.486       .  S
C259       C1750   1.489       .  S
In262       O264   2.241   1_554  S
In262       O265   2.255       .  S
In262       O273   2.233       .  S
In262       O267   2.258       .  S
In262       O269   2.260       .  S
In262       O270   2.248       .  S
In262       O271   2.225       .  S
In262       O274   2.239       .  S
C263        O269   1.265       .  A
C263        O271   1.259       .  A
C263       C1197   1.480       .  S
O264        C272   1.261       .  A
O265        C272   1.263   1_554  A
C266        O273   1.261       .  A
C266        O267   1.265       .  A
C266       C1014   1.486       .  S
C268        O270   1.265       .  A
C268        O274   1.261       .  A
C268        C941   1.485       .  S
C272       C2294   1.493       .  S
In275       O277   2.235       .  S
In275       O278   2.263       .  S
In275       O286   2.235       .  S
In275       O280   2.257       .  S
In275       O282   2.264       .  S
In275       O283   2.265       .  S
In275       O284   2.217       .  S
In275       O287   2.233   1_556  S
C276        O282   1.267       .  A
C276        O284   1.260       .  A
C276       C1558   1.487       .  S
O277        C285   1.260       .  A
O278        C285   1.265       .  A
C279        O286   1.261       .  A
C279        O280   1.264       .  A
C279        C909   1.487       .  S
C281        O283   1.264       .  A
C281        O287   1.261   1_556  A
C281       C1613   1.494   1_556  S
C285        C877   1.488       .  S
In288       O290   2.243       .  S
In288       O291   2.244       .  S
In288       O299   2.231       .  S
In288       O293   2.260       .  S
In288       O295   2.266       .  S
In288       O296   2.250       .  S
In288       O297   2.214       .  S
In288       O300   2.235   1_554  S
C289        O295   1.266       .  A
C289        O297   1.258       .  A
C289       C1334   1.486       .  S
O290        C298   1.261       .  A
O291        C298   1.262       .  A
C292        O299   1.260       .  A
C292        O293   1.263       .  A
C292        C918   1.482       .  S
C294        O296   1.263   1_556  A
C294        O300   1.260       .  A
C294       C2550   1.486       .  S
C298        C845   1.477       .  S
In301       O303   2.236       .  S
In301       O304   2.260       .  S
In301       O312   2.229       .  S
In301       O306   2.249       .  S
In301       O308   2.262       .  S
In301       O309   2.259       .  S
In301       O310   2.231       .  S
In301       O313   2.227       .  S
C302        O308   1.262       .  A
C302        O310   1.260       .  A
C302        C781   1.483       .  S
O303        C311   1.260       .  A
O304        C311   1.264       .  A
C305        O312   1.260       .  A
C305        O306   1.264       .  A
C305        C813   1.485       .  S
C307        O309   1.264       .  A
C307        O313   1.258       .  A
C307       C2125   1.490       .  S
C311       C1526   1.484       .  S
In314       O316   2.227       .  S
In314       O317   2.261       .  S
In314       O325   2.235       .  S
In314       O319   2.247       .  S
In314       O321   2.249       .  S
In314       O322   2.253       .  S
In314       O323   2.222       .  S
In314       O326   2.242       .  S
C315        O321   1.264       .  A
C315        O323   1.261       .  A
C315        C749   1.480       .  S
O316        C324   1.261       .  A
O317        C324   1.264       .  A
C318        O325   1.261       .  A
C318        O319   1.262       .  A
C318        C822   1.479       .  S
C320        O322   1.265       .  A
C320        O326   1.260       .  A
C320       C2381   1.491       .  S
C324       C1462   1.487       .  S
In327       O329   2.234       .  S
In327       O330   2.266       .  S
In327       O338   2.237       .  S
In327       O332   2.249       .  S
In327       O334   2.244       .  S
In327       O335   2.261       .  S
In327       O336   2.229       .  S
In327       O339   2.236       .  S
C328        O334   1.262       .  A
C328        O336   1.261       .  A
C328        C726   1.476       .  S
O329        C337   1.260       .  A
O330        C337   1.263       .  A
C331        O338   1.260       .  A
C331        O332   1.261       .  A
C331        C685   1.486       .  S
C333        O335   1.264       .  A
C333        O339   1.258       .  A
C333       C1878   1.486       .  S
C337       C1366   1.487       .  S
In340       O342   2.236       .  S
In340       O343   2.248       .  S
In340       O351   2.228       .  S
In340       O345   2.257       .  S
In340       O347   2.261       .  S
In340       O348   2.243       .  S
In340       O349   2.223       .  S
In340       O352   2.242       .  S
C341        O347   1.264       .  A
C341        O349   1.259       .  A
C341        C653   1.479       .  S
O342        C350   1.262       .  A
O343        C350   1.263       .  A
C344        O351   1.261       .  A
C344        O345   1.264       .  A
C344        C694   1.478       .  S
C346        O348   1.261       .  A
C346        O352   1.261       .  A
C346       C2742   1.490       .  S
C350       C1293   1.475       .  S
In353       O355   2.241       .  S
In353       O356   2.247       .  S
In353       O364   2.241       .  S
In353       O358   2.247       .  S
In353       O360   2.252       .  S
In353       O361   2.259       .  S
In353       O362   2.222       .  S
In353       O365   2.230       .  S
C354        O360   1.263       .  A
C354        O362   1.260       .  A
C354        C717   1.474       .  S
O355        C363   1.262       .  A
O356        C363   1.262       .  A
C357        O364   1.260       .  A
C357        O358   1.260       .  A
C357        C621   1.475       .  S
C359        O361   1.262       .  A
C359        O365   1.259       .  A
C359       C1238   1.475       .  S
C363       C2029   1.490       .  S
In366       O368   2.228       .  S
In366       O369   2.250       .  S
In366       O377   2.231       .  S
In366       O371   2.259       .  S
In366       O373   2.259       .  S
In366       O374   2.255       .  S
In366       O375   2.233       .  S
In366       O378   2.236       .  S
C367        O373   1.264       .  A
C367        O375   1.260       .  A
C367        C589   1.481       .  S
O368        C376   1.260       .  A
O369        C376   1.264       .  A
C370        O377   1.259       .  A
C370        O371   1.263       .  A
C370        C630   1.475       .  S
C372        O374   1.262       .  A
C372        O378   1.260       .  A
C372       C1174   1.475       .  S
C376       C2221   1.488       .  S
In379       O381   2.249       .  S
In379       O382   2.256       .  S
In379       O390   2.251       .  S
In379       O384   2.252       .  S
In379       O386   2.251       .  S
In379       O387   2.259       .  S
In379       O388   2.222       .  S
In379       O391   2.230       .  S
C380        O386   1.263       .  A
C380        O388   1.260       .  A
C380        C758   1.470       .  S
O381        C389   1.260       .  A
O382        C389   1.262       .  A
C383        O390   1.260       .  A
C383        O384   1.260       .  A
C383        C557   1.479       .  S
C385        O387   1.263       .  A
C385        O391   1.260       .  A
C385       C1110   1.489       .  S
C389       C2518   1.483       .  S
In392       O394   2.224       .  S
In392       O395   2.237       .  S
In392       O403   2.229       .  S
In392       O397   2.264       .  S
In392       O399   2.262       .  S
In392       O400   2.241       .  S
In392       O401   2.214       .  S
In392       O404   2.228       .  S
C393        O399   1.267       .  A
C393        O401   1.258       .  A
C393        C525   1.482       .  S
O394        C402   1.262       .  A
O395        C402   1.263       .  A
C396        O403   1.259       .  A
C396        O397   1.265       .  A
C396        C566   1.481       .  S
C398        O400   1.262       .  A
C398        O404   1.263       .  A
C398       C1046   1.483       .  S
C402       C1846   1.483       .  S
In405       O407   2.221       .  S
In405       O408   2.249       .  S
In405       O416   2.228       .  S
In405       O410   2.244       .  S
In405       O412   2.255       .  S
In405       O413   2.249       .  S
In405       O414   2.222       .  S
In405       O417   2.236       .  S
C406        O412   1.265       .  A
C406        O414   1.260       .  A
C406        C534   1.475       .  S
O407        C415   1.260       .  A
O408        C415   1.265       .  A
C409        O416   1.262       .  A
C409        O410   1.265       .  A
C409        C493   1.477       .  S
C411        O413   1.264       .  A
C411        O417   1.262       .  A
C411       C1709   1.492       .  S
C415        C982   1.472       .  S
In418       O420   2.234       .  S
In418       O421   2.259       .  S
In418       O429   2.233       .  S
In418       O423   2.260       .  S
In418       O425   2.259       .  S
In418       O426   2.254       .  S
In418       O427   2.214       .  S
In418       O430   2.238       .  S
C419        O425   1.266       .  A
C419        O427   1.261       .  A
C419        C598   1.473       .  S
O420        C428   1.260       .  A
O421        C428   1.263       .  A
C422        O429   1.259       .  A
C422        O423   1.264       .  A
C422        C502   1.489       .  S
C424        O426   1.264       .  A
C424        O430   1.262       .  A
C424       C2326   1.491       .  S
C428        C950   1.476       .  S
In431       O433   2.234       .  S
In431       O434   2.253       .  S
In431       O442   2.244       .  S
In431       O436   2.253       .  S
In431       O438   2.268       .  S
In431       O439   2.258       .  S
In431       O440   2.220       .  S
In431       O443   2.239       .  S
C432        O438   1.265       .  A
C432        O440   1.258       .  A
C432        C790   1.481       .  S
O433        C441   1.261       .  A
O434        C441   1.264       .  A
C435        O442   1.261       .  A
C435        O436   1.264       .  A
C435        C461   1.478       .  S
C437        O439   1.264       .  A
C437        O443   1.260       .  A
C437        C886   1.488       .  S
C441       C1645   1.480       .  S
In444       O446   2.233       .  S
In444       O447   2.253       .  S
In444       O455   2.243       .  S
In444       O449   2.253       .  S
In444       O451   2.260       .  S
In444       O452   2.265       .  S
In444       O453   2.229       .  S
In444       O456   2.221       .  S
C445        O451   1.264       .  A
C445        O453   1.260       .  A
C445        C662   1.476       .  S
O446        C454   1.261       .  A
O447        C454   1.265       .  A
C448        O455   1.261       .  A
C448        O449   1.263       .  A
C448        C470   1.483       .  S
C450        O452   1.264       .  A
C450        O456   1.259       .  A
C450        C854   1.478       .  S
C454       C2582   1.492       .  S
C457        C458   1.401       .  A
C457        C462   1.403       .  A
C457        H467   1.085       .  S
C458        C463   1.485       .  S
C458        C459   1.411       .  A
C459        C464   1.506       .  S
C459        C460   1.407       .  A
C460        C461   1.405       .  A
C460        H465   1.084       .  S
C461        C462   1.417       .  A
C462        C466   1.509       .  S
C463        C468   1.410       .  A
C463        C472   1.401       .  A
C464        H480   1.110       .  S
C464        H481   1.110       .  S
C464        H482   1.111       .  S
C466        H477   1.110       .  S
C466        H478   1.111       .  S
C466        H479   1.105       .  S
C468        C473   1.506       .  S
C468        C469   1.406       .  A
C469        C470   1.406       .  A
C469        H474   1.084       .  S
C470        C471   1.419       .  A
C471        C475   1.509       .  S
C471        C472   1.404       .  A
C472        H476   1.085       .  S
C473        H483   1.111       .  S
C473        H484   1.110       .  S
C473        H485   1.110       .  S
C475        H486   1.111       .  S
C475        H487   1.105       .  S
C475        H488   1.110       .  S
C489        C490   1.401       .  A
C489        C494   1.404       .  A
C489        H499   1.085       .  S
C490        C495   1.480       .  S
C490        C491   1.410       .  A
C491        C496   1.507       .  S
C491        C492   1.403       .  A
C492        C493   1.405       .  A
C492        H497   1.084       .  S
C493        C494   1.417       .  A
C494        C498   1.508       .  S
C495        C500   1.409       .  A
C495        C504   1.398       .  A
C496        H512   1.110       .  S
C496        H513   1.110       .  S
C496        H514   1.111       .  S
C498        H509   1.110       .  S
C498        H510   1.111       .  S
C498        H511   1.106       .  S
C500        C505   1.506       .  S
C500        C501   1.406       .  A
C501        C502   1.408       .  A
C501        H506   1.084       .  S
C502        C503   1.421       .  A
C503        C507   1.508       .  S
C503        C504   1.403       .  A
C504        H508   1.085       .  S
C505        H515   1.111       .  S
C505        H516   1.110       .  S
C505        H517   1.110       .  S
C507        H518   1.111       .  S
C507        H519   1.111       .  S
C507        H520   1.110       .  S
C521        C522   1.398       .  A
C521        C526   1.401       .  A
C521        H531   1.084       .  S
C522        C527   1.479       .  S
C522        C523   1.409       .  A
C523        C528   1.505       .  S
C523        C524   1.405       .  A
C524        C525   1.406       .  A
C524        H529   1.084       .  S
C525        C526   1.420       .  A
C526        C530   1.509       .  S
C527        C532   1.410       .  A
C527        C536   1.401       .  A
C528        H544   1.110       .  S
C528        H545   1.110       .  S
C528        H546   1.111       .  S
C530        H541   1.109       .  S
C530        H542   1.111       .  S
C530        H543   1.111       .  S
C532        C537   1.507       .  S
C532        C533   1.400       .  A
C533        C534   1.403       .  A
C533        H538   1.085       .  S
C534        C535   1.418       .  A
C535        C539   1.508       .  S
C535        C536   1.406       .  A
C536        H540   1.085       .  S
C537        H547   1.111       .  S
C537        H548   1.110       .  S
C537        H549   1.110       .  S
C539        H550   1.111       .  S
C539        H551   1.106       .  S
C539        H552   1.110       .  S
C553        C554   1.401   1_455  A
C553        C558   1.406       .  A
C553        H563   1.084   1_455  S
C554        C559   1.484       .  S
C554        C555   1.411   1_655  A
C555        C560   1.506   1_455  S
C555        C556   1.404       .  A
C556        C557   1.403       .  A
C556        H561   1.084       .  S
C557        C558   1.419       .  A
C558        C562   1.508       .  S
C559        C564   1.411       .  A
C559        C568   1.400       .  A
C560        H576   1.110       .  S
C560        H577   1.110       .  S
C560        H578   1.111   1_655  S
C562        H573   1.110       .  S
C562        H574   1.111       .  S
C562        H575   1.106       .  S
C564        C569   1.505       .  S
C564        C565   1.407       .  A
C565        C566   1.405       .  A
C565        H570   1.084       .  S
C566        C567   1.419       .  A
C567        C571   1.509       .  S
C567        C568   1.403       .  A
C568        H572   1.085       .  S
C569        H579   1.111       .  S
C569        H580   1.110       .  S
C569        H581   1.110       .  S
C571        H582   1.111       .  S
C571        H583   1.107       .  S
C571        H584   1.110       .  S
C585        C586   1.401       .  A
C585        C590   1.406       .  A
C585        H595   1.085       .  S
C586        C591   1.481       .  S
C586        C587   1.410       .  A
C587        C592   1.508       .  S
C587        C588   1.402       .  A
C588        C589   1.405       .  A
C588        H593   1.084       .  S
C589        C590   1.420       .  A
C590        C594   1.508       .  S
C591        C596   1.411       .  A
C591        C600   1.399       .  A
C592        H608   1.110       .  S
C592        H609   1.110       .  S
C592        H610   1.111       .  S
C594        H605   1.110       .  S
C594        H606   1.111       .  S
C594        H607   1.105       .  S
C596        C601   1.505       .  S
C596        C597   1.407       .  A
C597        C598   1.404       .  A
C597        H602   1.084       .  S
C598        C599   1.417       .  A
C599        C603   1.510       .  S
C599        C600   1.400       .  A
C600        H604   1.085       .  S
C601        H611   1.111       .  S
C601        H612   1.110       .  S
C601        H613   1.110       .  S
C603        H614   1.111       .  S
C603        H615   1.107       .  S
C603        H616   1.110       .  S
C617        C618   1.400   1_545  A
C617        C622   1.404       .  A
C617        H627   1.084   1_545  S
C618        C623   1.480       .  S
C618        C619   1.410   1_565  A
C619        C624   1.507   1_545  S
C619        C620   1.402       .  A
C620        C621   1.403       .  A
C620        H625   1.084       .  S
C621        C622   1.418       .  A
C622        C626   1.509       .  S
C623        C628   1.410       .  A
C623        C632   1.400       .  A
C624        H640   1.110       .  S
C624        H641   1.110       .  S
C624        H642   1.111   1_565  S
C626        H637   1.110       .  S
C626        H638   1.111       .  S
C626        H639   1.106       .  S
C628        C633   1.505       .  S
C628        C629   1.405       .  A
C629        C630   1.403       .  A
C629        H634   1.084       .  S
C630        C631   1.417       .  A
C631        C635   1.509       .  S
C631        C632   1.401       .  A
C632        H636   1.085       .  S
C633        H643   1.111       .  S
C633        H644   1.110       .  S
C633        H645   1.110       .  S
C635        H646   1.111       .  S
C635        H647   1.107       .  S
C635        H648   1.110       .  S
C649        C650   1.400       .  A
C649        C654   1.401       .  A
C649        H659   1.085       .  S
C650        C655   1.482       .  S
C650        C651   1.411       .  A
C651        C656   1.505       .  S
C651        C652   1.406       .  A
C652        C653   1.405       .  A
C652        H657   1.084       .  S
C653        C654   1.418       .  A
C654        C658   1.509       .  S
C655        C660   1.411       .  A
C655        C664   1.401       .  A
C656        H672   1.110       .  S
C656        H673   1.110       .  S
C656        H674   1.111       .  S
C658        H669   1.111       .  S
C658        H670   1.110       .  S
C658        H671   1.107       .  S
C660        C665   1.506       .  S
C660        C661   1.406       .  A
C661        C662   1.404       .  A
C661        H666   1.084       .  S
C662        C663   1.416       .  A
C663        C667   1.509       .  S
C663        C664   1.402       .  A
C664        H668   1.085       .  S
C665        H675   1.111       .  S
C665        H676   1.110       .  S
C665        H677   1.110       .  S
C667        H678   1.110       .  S
C667        H679   1.108       .  S
C667        H680   1.111       .  S
C681        C682   1.399       .  A
C681        C686   1.403       .  A
C681        H691   1.084       .  S
C682        C687   1.480       .  S
C682        C683   1.408       .  A
C683        C688   1.506       .  S
C683        C684   1.405       .  A
C684        C685   1.408       .  A
C684        H689   1.084       .  S
C685        C686   1.419       .  A
C686        C690   1.508       .  S
C687        C692   1.409       .  A
C687        C696   1.401   1_655  A
C688        H704   1.110       .  S
C688        H705   1.110       .  S
C688        H706   1.111       .  S
C690        H701   1.110       .  S
C690        H702   1.111       .  S
C690        H703   1.111       .  S
C692        C697   1.507       .  S
C692        C693   1.401   1_655  A
C693        C694   1.404       .  A
C693        H698   1.085       .  S
C694        C695   1.419       .  A
C695        C699   1.508       .  S
C695        C696   1.406       .  A
C696        H700   1.085   1_455  S
C697        H707   1.111       .  S
C697        H708   1.110       .  S
C697        H709   1.110       .  S
C699        H710   1.111       .  S
C699        H711   1.105       .  S
C699        H712   1.110       .  S
C713        C714   1.401       .  A
C713        C718   1.404       .  A
C713        H723   1.085       .  S
C714        C719   1.476       .  S
C714        C715   1.408       .  A
C715        C720   1.507       .  S
C715        C716   1.399       .  A
C716        C717   1.404       .  A
C716        H721   1.083       .  S
C717        C718   1.418       .  A
C718        C722   1.508       .  S
C719        C724   1.408       .  A
C719        C728   1.399       .  A
C720        H736   1.110       .  S
C720        H737   1.110       .  S
C720        H738   1.111       .  S
C722        H733   1.110       .  S
C722        H734   1.111       .  S
C722        H735   1.104       .  S
C724        C729   1.505       .  S
C724        C725   1.404       .  A
C725        C726   1.406       .  A
C725        H730   1.084       .  S
C726        C727   1.418       .  A
C727        C731   1.509       .  S
C727        C728   1.400       .  A
C728        H732   1.085       .  S
C729        H739   1.111       .  S
C729        H740   1.110       .  S
C729        H741   1.110       .  S
C731        H742   1.111       .  S
C731        H743   1.105       .  S
C731        H744   1.110       .  S
C745        C746   1.399       .  A
C745        C750   1.404       .  A
C745        H755   1.085       .  S
C746        C751   1.475       .  S
C746        C747   1.408       .  A
C747        C752   1.508       .  S
C747        C748   1.399       .  A
C748        C749   1.406       .  A
C748        H753   1.084       .  S
C749        C750   1.421       .  A
C750        C754   1.508       .  S
C751        C756   1.410       .  A
C751        C760   1.399       .  A
C752        H768   1.110       .  S
C752        H769   1.110       .  S
C752        H770   1.111       .  S
C754        H765   1.110       .  S
C754        H766   1.111       .  S
C754        H767   1.104       .  S
C756        C761   1.506       .  S
C756        C757   1.403       .  A
C757        C758   1.402       .  A
C757        H762   1.084       .  S
C758        C759   1.416       .  A
C759        C763   1.509       .  S
C759        C760   1.400       .  A
C760        H764   1.085       .  S
C761        H771   1.111       .  S
C761        H772   1.110       .  S
C761        H773   1.110       .  S
C763        H774   1.111       .  S
C763        H775   1.108       .  S
C763        H776   1.110       .  S
C777        C778   1.401       .  A
C777        C782   1.408       .  A
C777        H787   1.084       .  S
C778        C783   1.482       .  S
C778        C779   1.409       .  A
C779        C784   1.508       .  S
C779        C780   1.400       .  A
C780        C781   1.405       .  A
C780        H785   1.084       .  S
C781        C782   1.422       .  A
C782        C786   1.508       .  S
C783        C788   1.410       .  A
C783        C792   1.400       .  A
C784        H800   1.110       .  S
C784        H801   1.110       .  S
C784        H802   1.111       .  S
C786        H797   1.111       .  S
C786        H798   1.110       .  S
C786        H799   1.103       .  S
C788        C793   1.505       .  S
C788        C789   1.407       .  A
C789        C790   1.406       .  A
C789        H794   1.084       .  S
C790        C791   1.417       .  A
C791        C795   1.509       .  S
C791        C792   1.402       .  A
C792        H796   1.084       .  S
C793        H803   1.111       .  S
C793        H804   1.110       .  S
C793        H805   1.110       .  S
C795        H806   1.111       .  S
C795        H807   1.111       .  S
C795        H808   1.109       .  S
C809        C810   1.399   1_545  A
C809        C814   1.403       .  A
C809        H819   1.084   1_545  S
C810        C815   1.479       .  S
C810        C811   1.408   1_565  A
C811        C816   1.506       .  S
C811        C812   1.404       .  A
C812        C813   1.407       .  A
C812        H817   1.084       .  S
C813        C814   1.420       .  A
C814        C818   1.508       .  S
C815        C820   1.409       .  A
C815        C824   1.400       .  A
C816        H832   1.110   1_545  S
C816        H833   1.110   1_545  S
C816        H834   1.111       .  S
C818        H829   1.110       .  S
C818        H830   1.111       .  S
C818        H831   1.110       .  S
C820        C825   1.507       .  S
C820        C821   1.402       .  A
C821        C822   1.405       .  A
C821        H826   1.084       .  S
C822        C823   1.419       .  A
C823        C827   1.509       .  S
C823        C824   1.404       .  A
C824        H828   1.085       .  S
C825        H835   1.111       .  S
C825        H836   1.110       .  S
C825        H837   1.110       .  S
C827        H838   1.111       .  S
C827        H839   1.105       .  S
C827        H840   1.110       .  S
C841        C842   1.399       .  A
C841        C846   1.404       .  A
C841        H851   1.085       .  S
C842        C847   1.480       .  S
C842        C843   1.410       .  A
C843        C848   1.507       .  S
C843        C844   1.403       .  A
C844        C845   1.404       .  A
C844        H849   1.084       .  S
C845        C846   1.419       .  A
C846        C850   1.509       .  S
C847        C852   1.410       .  A
C847        C856   1.399       .  A
C848        H864   1.110       .  S
C848        H865   1.110       .  S
C848        H866   1.111       .  S
C850        H861   1.110       .  S
C850        H862   1.111       .  S
C850        H863   1.105       .  S
C852        C857   1.505       .  S
C852        C853   1.407       .  A
C853        C854   1.406       .  A
C853        H858   1.084       .  S
C854        C855   1.418       .  A
C855        C859   1.509       .  S
C855        C856   1.400       .  A
C856        H860   1.085       .  S
C857        H867   1.111       .  S
C857        H868   1.110       .  S
C857        H869   1.110       .  S
C859        H870   1.111       .  S
C859        H871   1.107       .  S
C859        H872   1.110       .  S
C873        C874   1.400       .  A
C873        C878   1.405       .  A
C873        H883   1.084       .  S
C874        C879   1.485       .  S
C874        C875   1.411       .  A
C875        C880   1.506       .  S
C875        C876   1.408       .  A
C876        C877   1.407       .  A
C876        H881   1.084       .  S
C877        C878   1.420       .  A
C878        C882   1.508       .  S
C879        C884   1.410       .  A
C879        C888   1.401       .  A
C880        H896   1.110       .  S
C880        H897   1.110       .  S
C880        H898   1.111       .  S
C882        H893   1.111       .  S
C882        H894   1.109       .  S
C882        H895   1.111       .  S
C884        C889   1.506       .  S
C884        C885   1.406       .  A
C885        C886   1.406       .  A
C885        H890   1.084       .  S
C886        C887   1.419       .  A
C887        C891   1.508       .  S
C887        C888   1.406       .  A
C888        H892   1.084       .  S
C889        H899   1.111       .  S
C889        H900   1.110       .  S
C889        H901   1.109       .  S
C891        H902   1.111       .  S
C891        H903   1.109       .  S
C891        H904   1.110       .  S
C905        C906   1.401   1_554  A
C905        C910   1.407   1_554  A
C905        H915   1.084       .  S
C906        C911   1.482       .  S
C906        C907   1.409       .  A
C907        C912   1.507       .  S
C907        C908   1.403       .  A
C908        C909   1.407       .  A
C908        H913   1.084       .  S
C909        C910   1.418       .  A
C910        C914   1.507   1_556  S
C911        C916   1.410       .  A
C911        C920   1.399   1_556  A
C912        H928   1.110       .  S
C912        H929   1.110       .  S
C912        H930   1.111       .  S
C914        H925   1.111       .  S
C914        H926   1.111       .  S
C914        H927   1.110   1_554  S
C916        C921   1.506       .  S
C916        C917   1.407       .  A
C917        C918   1.406   1_556  A
C917        H922   1.084       .  S
C918        C919   1.419       .  A
C919        C923   1.509       .  S
C919        C920   1.402       .  A
C920        H924   1.085       .  S
C921        H931   1.111       .  S
C921        H932   1.110       .  S
C921        H933   1.110       .  S
C923        H934   1.111       .  S
C923        H935   1.106       .  S
C923        H936   1.110       .  S
C937        C938   1.401       .  A
C937        C942   1.406       .  A
C937        H947   1.084       .  S
C938        C943   1.482       .  S
C938        C939   1.409       .  A
C939        C944   1.506       .  S
C939        C940   1.404       .  A
C940        C941   1.406       .  A
C940        H945   1.084       .  S
C941        C942   1.419       .  A
C942        C946   1.507       .  S
C943        C948   1.411       .  A
C943        C952   1.400       .  A
C944        H960   1.110       .  S
C944        H961   1.110       .  S
C944        H962   1.111       .  S
C946        H957   1.110       .  S
C946        H958   1.111       .  S
C946        H959   1.109       .  S
C948        C953   1.505       .  S
C948        C949   1.407       .  A
C949        C950   1.404       .  A
C949        H954   1.084       .  S
C950        C951   1.416       .  A
C951        C955   1.509       .  S
C951        C952   1.401       .  A
C952        H956   1.085       .  S
C953        H963   1.111       .  S
C953        H964   1.110       .  S
C953        H965   1.110       .  S
C955        H966   1.110       .  S
C955        H967   1.107       .  S
C955        H968   1.111       .  S
C969        C970   1.399       .  A
C969        C974   1.404       .  A
C969        H979   1.084       .  S
C970        C975   1.479       .  S
C970        C971   1.409       .  A
C971        C976   1.507       .  S
C971        C972   1.403       .  A
C972        C973   1.407       .  A
C972        H977   1.083       .  S
C973        C974   1.419       .  A
C974        C978   1.507       .  S
C975        C980   1.410       .  A
C975        C984   1.401       .  A
C976        H992   1.110       .  S
C976        H993   1.110       .  S
C976        H994   1.111       .  S
C978        H989   1.110       .  S
C978        H990   1.111       .  S
C978        H991   1.110       .  S
C980        C985   1.506       .  S
C980        C981   1.402       .  A
C981        C982   1.402       .  A
C981        H986   1.084       .  S
C982        C983   1.417       .  A
C983        C987   1.509       .  S
C983        C984   1.402       .  A
C984        H988   1.084       .  S
C985        H995   1.111       .  S
C985        H996   1.110       .  S
C985        H997   1.111       .  S
C987        H998   1.111       .  S
C987        H999   1.107       .  S
C987       H1000   1.110       .  S
C1001      C1002   1.399       .  A
C1001      C1006   1.406       .  A
C1001      H1011   1.085       .  S
C1002      C1007   1.485       .  S
C1002      C1003   1.410   1_556  A
C1003      C1008   1.506       .  S
C1003      C1004   1.407   1_554  A
C1004      C1005   1.406       .  A
C1004      H1009   1.084   1_556  S
C1005      C1006   1.422       .  A
C1006      C1010   1.508       .  S
C1007      C1012   1.410       .  A
C1007      C1016   1.400   1_556  A
C1008      H1024   1.110       .  S
C1008      H1025   1.110       .  S
C1008      H1026   1.111       .  S
C1010      H1021   1.111       .  S
C1010      H1022   1.111       .  S
C1010      H1023   1.109       .  S
C1012      C1017   1.505       .  S
C1012      C1013   1.407       .  A
C1013      C1014   1.406   1_556  A
C1013      H1018   1.084       .  S
C1014      C1015   1.419       .  A
C1015      C1019   1.508       .  S
C1015      C1016   1.404       .  A
C1016      H1020   1.084       .  S
C1017      H1027   1.111       .  S
C1017      H1028   1.110       .  S
C1017      H1029   1.110       .  S
C1019      H1030   1.109       .  S
C1019      H1031   1.110       .  S
C1019      H1032   1.111       .  S
C1033      C1034   1.400       .  A
C1033      C1038   1.401       .  A
C1033      H1043   1.085       .  S
C1034      C1039   1.481       .  S
C1034      C1035   1.411       .  A
C1035      C1040   1.506       .  S
C1035      C1036   1.405       .  A
C1036      C1037   1.405       .  A
C1036      H1041   1.084       .  S
C1037      C1038   1.417       .  A
C1038      C1042   1.508       .  S
C1039      C1044   1.410       .  A
C1039      C1048   1.401       .  A
C1040      H1056   1.110       .  S
C1040      H1057   1.110       .  S
C1040      H1058   1.111       .  S
C1042      H1053   1.110       .  S
C1042      H1054   1.111       .  S
C1042      H1055   1.106       .  S
C1044      C1049   1.508       .  S
C1044      C1045   1.400       .  A
C1045      C1046   1.405       .  A
C1045      H1050   1.084       .  S
C1046      C1047   1.418       .  A
C1047      C1051   1.507       .  S
C1047      C1048   1.406       .  A
C1048      H1052   1.084       .  S
C1049      H1059   1.111       .  S
C1049      H1060   1.109       .  S
C1049      H1061   1.110       .  S
C1051      H1062   1.110       .  S
C1051      H1063   1.110       .  S
C1051      H1064   1.111       .  S
C1065      C1066   1.399       .  A
C1065      C1070   1.402       .  A
C1065      H1075   1.085       .  S
C1066      C1071   1.483       .  S
C1066      C1067   1.411       .  A
C1067      C1072   1.505   1_556  S
C1067      C1068   1.408       .  A
C1068      C1069   1.405       .  A
C1068      H1073   1.084   1_556  S
C1069      C1070   1.418       .  A
C1070      C1074   1.509       .  S
C1071      C1076   1.411       .  A
C1071      C1080   1.400       .  A
C1072      H1088   1.110       .  S
C1072      H1089   1.110       .  S
C1072      H1090   1.111       .  S
C1074      H1085   1.111       .  S
C1074      H1086   1.110       .  S
C1074      H1087   1.107       .  S
C1076      C1081   1.505       .  S
C1076      C1077   1.406       .  A
C1077      C1078   1.404       .  A
C1077      H1082   1.084       .  S
C1078      C1079   1.417       .  A
C1079      C1083   1.509   1_556  S
C1079      C1080   1.402       .  A
C1080      H1084   1.085       .  S
C1081      H1091   1.111       .  S
C1081      H1092   1.110       .  S
C1081      H1093   1.110       .  S
C1083      H1094   1.110   1_554  S
C1083      H1095   1.107       .  S
C1083      H1096   1.111       .  S
C1097      C1098   1.400       .  A
C1097      C1102   1.402       .  A
C1097      H1107   1.084       .  S
C1098      C1103   1.482       .  S
C1098      C1099   1.411       .  A
C1099      C1104   1.506       .  S
C1099      C1100   1.406       .  A
C1100      C1101   1.404       .  A
C1100      H1105   1.084       .  S
C1101      C1102   1.415       .  A
C1102      C1106   1.508       .  S
C1103      C1108   1.409       .  A
C1103      C1112   1.401       .  A
C1104      H1120   1.110       .  S
C1104      H1121   1.110       .  S
C1104      H1122   1.111       .  S
C1106      H1117   1.110       .  S
C1106      H1118   1.111       .  S
C1106      H1119   1.108       .  S
C1108      C1113   1.508       .  S
C1108      C1109   1.401       .  A
C1109      C1110   1.407       .  A
C1109      H1114   1.084       .  S
C1110      C1111   1.420       .  A
C1111      C1115   1.506       .  S
C1111      C1112   1.408       .  A
C1112      H1116   1.084       .  S
C1113      H1123   1.111       .  S
C1113      H1124   1.110       .  S
C1113      H1125   1.110       .  S
C1115      H1126   1.111       .  S
C1115      H1127   1.110       .  S
C1115      H1128   1.110       .  S
C1129      C1130   1.398   1_556  A
C1129      C1134   1.403       .  A
C1129      H1139   1.084       .  S
C1130      C1135   1.483       .  S
C1130      C1131   1.410       .  A
C1131      C1136   1.506       .  S
C1131      C1132   1.407       .  A
C1132      C1133   1.408   1_554  A
C1132      H1137   1.084       .  S
C1133      C1134   1.422       .  A
C1134      C1138   1.509       .  S
C1135      C1140   1.411       .  A
C1135      C1144   1.402   1_654  A
C1136      H1152   1.110       .  S
C1136      H1153   1.109       .  S
C1136      H1154   1.111       .  S
C1138      H1149   1.110       .  S
C1138      H1150   1.111       .  S
C1138      H1151   1.111       .  S
C1140      C1145   1.507       .  S
C1140      C1141   1.404   1_655  A
C1141      C1142   1.404       .  A
C1141      H1146   1.085       .  S
C1142      C1143   1.417   1_554  A
C1143      C1147   1.508       .  S
C1143      C1144   1.405       .  A
C1144      H1148   1.085       .  S
C1145      H1155   1.111       .  S
C1145      H1156   1.110       .  S
C1145      H1157   1.109       .  S
C1147      H1158   1.111       .  S
C1147      H1159   1.106       .  S
C1147      H1160   1.110       .  S
C1161      C1162   1.400       .  A
C1161      C1166   1.405       .  A
C1161      H1171   1.085       .  S
C1162      C1167   1.480       .  S
C1162      C1163   1.409       .  A
C1163      C1168   1.507       .  S
C1163      C1164   1.402       .  A
C1164      C1165   1.406       .  A
C1164      H1169   1.084       .  S
C1165      C1166   1.420       .  A
C1166      C1170   1.509       .  S
C1167      C1172   1.410       .  A
C1167      C1176   1.400       .  A
C1168      H1184   1.110       .  S
C1168      H1185   1.110       .  S
C1168      H1186   1.111       .  S
C1170      H1181   1.110       .  S
C1170      H1182   1.111       .  S
C1170      H1183   1.104       .  S
C1172      C1177   1.506       .  S
C1172      C1173   1.406       .  A
C1173      C1174   1.404       .  A
C1173      H1178   1.084       .  S
C1174      C1175   1.417       .  A
C1175      C1179   1.509       .  S
C1175      C1176   1.402       .  A
C1176      H1180   1.085       .  S
C1177      H1187   1.111       .  S
C1177      H1188   1.110       .  S
C1177      H1189   1.110       .  S
C1179      H1190   1.111       .  S
C1179      H1191   1.107       .  S
C1179      H1192   1.110       .  S
C1193      C1194   1.400       .  A
C1193      C1198   1.405       .  A
C1193      H1203   1.085   1_554  S
C1194      C1199   1.480       .  S
C1194      C1195   1.408       .  A
C1195      C1200   1.507       .  S
C1195      C1196   1.402       .  A
C1196      C1197   1.406       .  A
C1196      H1201   1.084       .  S
C1197      C1198   1.420       .  A
C1198      C1202   1.508   1_554  S
C1199      C1204   1.409       .  A
C1199      C1208   1.400       .  A
C1200      H1216   1.110       .  S
C1200      H1217   1.110       .  S
C1200      H1218   1.111       .  S
C1202      H1213   1.110       .  S
C1202      H1214   1.111       .  S
C1202      H1215   1.103       .  S
C1204      C1209   1.505       .  S
C1204      C1205   1.404       .  A
C1205      C1206   1.405       .  A
C1205      H1210   1.084       .  S
C1206      C1207   1.419       .  A
C1207      C1211   1.510       .  S
C1207      C1208   1.402       .  A
C1208      H1212   1.085       .  S
C1209      H1219   1.111       .  S
C1209      H1220   1.110       .  S
C1209      H1221   1.110       .  S
C1211      H1222   1.111   1_554  S
C1211      H1223   1.106   1_554  S
C1211      H1224   1.110       .  S
C1225      C1226   1.400       .  A
C1225      C1230   1.405       .  A
C1225      H1235   1.085       .  S
C1226      C1231   1.480       .  S
C1226      C1227   1.409       .  A
C1227      C1232   1.507       .  S
C1227      C1228   1.402       .  A
C1228      C1229   1.406       .  A
C1228      H1233   1.084       .  S
C1229      C1230   1.421       .  A
C1230      C1234   1.508       .  S
C1231      C1236   1.410       .  A
C1231      C1240   1.399       .  A
C1232      H1248   1.110       .  S
C1232      H1249   1.110       .  S
C1232      H1250   1.111       .  S
C1234      H1245   1.110       .  S
C1234      H1246   1.111       .  S
C1234      H1247   1.104       .  S
C1236      C1241   1.505       .  S
C1236      C1237   1.406       .  A
C1237      C1238   1.404       .  A
C1237      H1242   1.084       .  S
C1238      C1239   1.417       .  A
C1239      C1243   1.509       .  S
C1239      C1240   1.400       .  A
C1240      H1244   1.085       .  S
C1241      H1251   1.111       .  S
C1241      H1252   1.110       .  S
C1241      H1253   1.110       .  S
C1243      H1254   1.111       .  S
C1243      H1255   1.105       .  S
C1243      H1256   1.110       .  S
C1257      C1258   1.399   1_554  A
C1257      C1262   1.400       .  A
C1257      H1267   1.085       .  S
C1258      C1263   1.477       .  S
C1258      C1259   1.410       .  A
C1259      C1264   1.506       .  S
C1259      C1260   1.404       .  A
C1260      C1261   1.403   1_556  A
C1260      H1265   1.084       .  S
C1261      C1262   1.416       .  A
C1262      C1266   1.508       .  S
C1263      C1268   1.408   1_565  A
C1263      C1272   1.399   1_565  A
C1264      H1280   1.110       .  S
C1264      H1281   1.110       .  S
C1264      H1282   1.111       .  S
C1266      H1277   1.110       .  S
C1266      H1278   1.111       .  S
C1266      H1279   1.108       .  S
C1268      C1273   1.507   1_545  S
C1268      C1269   1.400       .  A
C1269      C1270   1.407       .  A
C1269      H1274   1.084       .  S
C1270      C1271   1.421       .  A
C1271      C1275   1.507       .  S
C1271      C1272   1.405       .  A
C1272      H1276   1.084       .  S
C1273      H1283   1.111       .  S
C1273      H1284   1.110   1_556  S
C1273      H1285   1.110       .  S
C1275      H1286   1.111       .  S
C1275      H1287   1.110       .  S
C1275      H1288   1.110       .  S
C1289      C1290   1.401       .  A
C1289      C1294   1.403       .  A
C1289      H1299   1.085       .  S
C1290      C1295   1.481       .  S
C1290      C1291   1.411       .  A
C1291      C1296   1.506       .  S
C1291      C1292   1.404       .  A
C1292      C1293   1.404       .  A
C1292      H1297   1.084       .  S
C1293      C1294   1.416       .  A
C1294      C1298   1.508       .  S
C1295      C1300   1.410       .  A
C1295      C1304   1.401       .  A
C1296      H1312   1.110       .  S
C1296      H1313   1.110       .  S
C1296      H1314   1.111       .  S
C1298      H1309   1.110       .  S
C1298      H1310   1.111       .  S
C1298      H1311   1.107       .  S
C1300      C1305   1.507       .  S
C1300      C1301   1.402       .  A
C1301      C1302   1.405       .  A
C1301      H1306   1.084       .  S
C1302      C1303   1.419       .  A
C1303      C1307   1.508       .  S
C1303      C1304   1.405       .  A
C1304      H1308   1.084       .  S
C1305      H1315   1.111       .  S
C1305      H1316   1.110       .  S
C1305      H1317   1.110       .  S
C1307      H1318   1.111       .  S
C1307      H1319   1.105       .  S
C1307      H1320   1.110       .  S
C1321      C1322   1.401       .  A
C1321      C1326   1.405       .  A
C1321      H1331   1.084   1_554  S
C1322      C1327   1.480       .  S
C1322      C1323   1.410       .  A
C1323      C1328   1.507       .  S
C1323      C1324   1.402       .  A
C1324      C1325   1.404       .  A
C1324      H1329   1.084       .  S
C1325      C1326   1.417       .  A
C1326      C1330   1.508   1_554  S
C1327      C1332   1.409       .  A
C1327      C1336   1.398       .  A
C1328      H1344   1.110       .  S
C1328      H1345   1.110       .  S
C1328      H1346   1.111       .  S
C1330      H1341   1.110       .  S
C1330      H1342   1.111       .  S
C1330      H1343   1.105       .  S
C1332      C1337   1.505       .  S
C1332      C1333   1.407       .  A
C1333      C1334   1.408       .  A
C1333      H1338   1.084       .  S
C1334      C1335   1.421       .  A
C1335      C1339   1.509       .  S
C1335      C1336   1.400       .  A
C1336      H1340   1.085       .  S
C1337      H1347   1.111       .  S
C1337      H1348   1.110       .  S
C1337      H1349   1.110       .  S
C1339      H1350   1.111       .  S
C1339      H1351   1.110       .  S
C1339      H1352   1.110       .  S
C1353      C1354   1.400       .  A
C1353      C1358   1.403       .  A
C1353      H1363   1.085       .  S
C1354      C1359   1.486       .  S
C1354      C1355   1.411       .  A
C1355      C1360   1.505       .  S
C1355      C1356   1.409       .  A
C1356      C1357   1.406       .  A
C1356      H1361   1.084       .  S
C1357      C1358   1.418       .  A
C1358      C1362   1.509       .  S
C1359      C1364   1.409       .  A
C1359      C1368   1.402       .  A
C1360      H1376   1.110       .  S
C1360      H1377   1.110       .  S
C1360      H1378   1.111       .  S
C1362      H1373   1.110       .  S
C1362      H1374   1.111       .  S
C1362      H1375   1.106       .  S
C1364      C1369   1.507       .  S
C1364      C1365   1.402       .  A
C1365      C1366   1.406       .  A
C1365      H1370   1.084       .  S
C1366      C1367   1.422       .  A
C1367      C1371   1.508       .  S
C1367      C1368   1.409       .  A
C1368      H1372   1.084       .  S
C1369      H1379   1.111       .  S
C1369      H1380   1.110       .  S
C1369      H1381   1.110       .  S
C1371      H1382   1.111       .  S
C1371      H1383   1.103       .  S
C1371      H1384   1.110       .  S
C1385      C1386   1.401       .  A
C1385      C1390   1.405       .  A
C1385      H1395   1.085       .  S
C1386      C1391   1.486       .  S
C1386      C1387   1.412   1_556  A
C1387      C1392   1.507       .  S
C1387      C1388   1.407   1_554  A
C1388      C1389   1.405       .  A
C1388      H1393   1.084   1_556  S
C1389      C1390   1.418       .  A
C1390      C1394   1.509       .  S
C1391      C1396   1.412   1_655  A
C1391      C1400   1.399   1_656  A
C1392      H1408   1.110       .  S
C1392      H1409   1.110       .  S
C1392      H1410   1.111       .  S
C1394      H1405   1.111       .  S
C1394      H1406   1.110       .  S
C1394      H1407   1.106       .  S
C1396      C1401   1.506   1_455  S
C1396      C1397   1.408       .  A
C1397      C1398   1.407   1_556  A
C1397      H1402   1.084       .  S
C1398      C1399   1.421       .  A
C1399      C1403   1.509       .  S
C1399      C1400   1.404       .  A
C1400      H1404   1.084   1_455  S
C1401      H1411   1.111   1_655  S
C1401      H1412   1.110       .  S
C1401      H1413   1.110       .  S
C1403      H1414   1.110       .  S
C1403      H1415   1.111       .  S
C1403      H1416   1.111       .  S
C1417      C1418   1.401       .  A
C1417      C1422   1.405       .  A
C1417      H1427   1.084   1_556  S
C1418      C1423   1.479       .  S
C1418      C1419   1.409       .  A
C1419      C1424   1.507       .  S
C1419      C1420   1.402       .  A
C1420      C1421   1.405       .  A
C1420      H1425   1.084       .  S
C1421      C1422   1.418       .  A
C1422      C1426   1.508   1_556  S
C1423      C1428   1.410       .  A
C1423      C1432   1.400       .  A
C1424      H1440   1.110       .  S
C1424      H1441   1.110       .  S
C1424      H1442   1.111       .  S
C1426      H1437   1.110       .  S
C1426      H1438   1.111       .  S
C1426      H1439   1.105       .  S
C1428      C1433   1.505       .  S
C1428      C1429   1.405       .  A
C1429      C1430   1.405       .  A
C1429      H1434   1.084       .  S
C1430      C1431   1.417       .  A
C1431      C1435   1.509       .  S
C1431      C1432   1.401       .  A
C1432      H1436   1.085       .  S
C1433      H1443   1.111       .  S
C1433      H1444   1.110       .  S
C1433      H1445   1.110       .  S
C1435      H1446   1.111   1_556  S
C1435      H1447   1.107       .  S
C1435      H1448   1.110       .  S
C1449      C1450   1.401       .  A
C1449      C1454   1.405       .  A
C1449      H1459   1.084       .  S
C1450      C1455   1.483       .  S
C1450      C1451   1.410       .  A
C1451      C1456   1.506       .  S
C1451      C1452   1.404       .  A
C1452      C1453   1.404       .  A
C1452      H1457   1.084       .  S
C1453      C1454   1.418       .  A
C1454      C1458   1.508       .  S
C1455      C1460   1.409       .  A
C1455      C1464   1.402       .  A
C1456      H1472   1.110       .  S
C1456      H1473   1.110       .  S
C1456      H1474   1.111       .  S
C1458      H1469   1.111       .  S
C1458      H1470   1.110       .  S
C1458      H1471   1.105       .  S
C1460      C1465   1.508       .  S
C1460      C1461   1.401       .  A
C1461      C1462   1.406       .  A
C1461      H1466   1.084       .  S
C1462      C1463   1.418       .  A
C1463      C1467   1.506       .  S
C1463      C1464   1.409       .  A
C1464      H1468   1.084       .  S
C1465      H1475   1.111       .  S
C1465      H1476   1.110       .  S
C1465      H1477   1.110       .  S
C1467      H1478   1.110       .  S
C1467      H1479   1.110       .  S
C1467      H1480   1.111       .  S
C1481      C1482   1.399       .  A
C1481      C1486   1.399       .  A
C1481      H1491   1.085       .  S
C1482      C1487   1.476       .  S
C1482      C1483   1.410       .  A
C1483      C1488   1.506   1_554  S
C1483      C1484   1.405       .  A
C1484      C1485   1.404       .  A
C1484      H1489   1.084   1_554  S
C1485      C1486   1.416       .  A
C1486      C1490   1.508       .  S
C1487      C1492   1.409       .  A
C1487      C1496   1.399       .  A
C1488      H1504   1.110       .  S
C1488      H1505   1.110       .  S
C1488      H1506   1.111       .  S
C1490      H1501   1.110       .  S
C1490      H1502   1.110       .  S
C1490      H1503   1.107       .  S
C1492      C1497   1.508       .  S
C1492      C1493   1.401       .  A
C1493      C1494   1.405       .  A
C1493      H1498   1.084       .  S
C1494      C1495   1.419       .  A
C1495      C1499   1.508       .  S
C1495      C1496   1.404       .  A
C1496      H1500   1.084       .  S
C1497      H1507   1.111   1_554  S
C1497      H1508   1.110       .  S
C1497      H1509   1.110   1_554  S
C1499      H1510   1.111       .  S
C1499      H1511   1.105       .  S
C1499      H1512   1.110       .  S
C1513      C1514   1.403       .  A
C1513      C1518   1.408       .  A
C1513      H1523   1.084       .  S
C1514      C1519   1.484       .  S
C1514      C1515   1.410       .  A
C1515      C1520   1.507       .  S
C1515      C1516   1.401       .  A
C1516      C1517   1.404       .  A
C1516      H1521   1.084       .  S
C1517      C1518   1.419       .  A
C1518      C1522   1.507       .  S
C1519      C1524   1.410       .  A
C1519      C1528   1.400       .  A
C1520      H1536   1.110       .  S
C1520      H1537   1.110       .  S
C1520      H1538   1.111       .  S
C1522      H1533   1.110       .  S
C1522      H1534   1.111       .  S
C1522      H1535   1.106       .  S
C1524      C1529   1.506       .  S
C1524      C1525   1.406       .  A
C1525      C1526   1.405       .  A
C1525      H1530   1.084       .  S
C1526      C1527   1.418       .  A
C1527      C1531   1.508       .  S
C1527      C1528   1.405       .  A
C1528      H1532   1.084       .  S
C1529      H1539   1.111       .  S
C1529      H1540   1.110       .  S
C1529      H1541   1.110       .  S
C1531      H1542   1.110       .  S
C1531      H1543   1.109       .  S
C1531      H1544   1.111       .  S
C1545      C1546   1.401       .  A
C1545      C1550   1.406       .  A
C1545      H1555   1.084   1_556  S
C1546      C1551   1.483       .  S
C1546      C1547   1.411       .  A
C1547      C1552   1.507       .  S
C1547      C1548   1.402       .  A
C1548      C1549   1.403       .  A
C1548      H1553   1.085       .  S
C1549      C1550   1.418       .  A
C1550      C1554   1.508   1_556  S
C1551      C1556   1.410       .  A
C1551      C1560   1.399       .  A
C1552      H1568   1.110       .  S
C1552      H1569   1.110       .  S
C1552      H1570   1.111       .  S
C1554      H1565   1.110       .  S
C1554      H1566   1.111       .  S
C1554      H1567   1.105       .  S
C1556      C1561   1.505       .  S
C1556      C1557   1.408       .  A
C1557      C1558   1.408       .  A
C1557      H1562   1.084       .  S
C1558      C1559   1.421       .  A
C1559      C1563   1.509       .  S
C1559      C1560   1.402       .  A
C1560      H1564   1.085       .  S
C1561      H1571   1.111       .  S
C1561      H1572   1.110       .  S
C1561      H1573   1.110       .  S
C1563      H1574   1.111       .  S
C1563      H1575   1.111       .  S
C1563      H1576   1.109       .  S
C1577      C1578   1.400   1_556  A
C1577      C1582   1.406       .  A
C1577      H1587   1.084       .  S
C1578      C1583   1.478   1_554  S
C1578      C1579   1.408       .  A
C1579      C1584   1.508       .  S
C1579      C1580   1.401       .  A
C1580      C1581   1.408       .  A
C1580      H1585   1.084       .  S
C1581      C1582   1.420   1_554  A
C1582      C1586   1.507       .  S
C1583      C1588   1.409   1_565  A
C1583      C1592   1.401   1_566  A
C1584      H1600   1.110       .  S
C1584      H1601   1.109       .  S
C1584      H1602   1.111       .  S
C1586      H1597   1.110       .  S
C1586      H1598   1.111       .  S
C1586      H1599   1.110   1_556  S
C1588      C1593   1.507   1_545  S
C1588      C1589   1.401       .  A
C1589      C1590   1.404       .  A
C1589      H1594   1.084       .  S
C1590      C1591   1.417   1_556  A
C1591      C1595   1.508       .  S
C1591      C1592   1.405       .  A
C1592      H1596   1.084       .  S
C1593      H1603   1.111       .  S
C1593      H1604   1.110       .  S
C1593      H1605   1.109       .  S
C1595      H1606   1.110       .  S
C1595      H1607   1.106       .  S
C1595      H1608   1.111       .  S
C1609      C1610   1.402       .  A
C1609      C1614   1.410       .  A
C1609      H1619   1.084       .  S
C1610      C1615   1.485       .  S
C1610      C1611   1.409       .  A
C1611      C1616   1.508       .  S
C1611      C1612   1.403       .  A
C1612      C1613   1.409       .  A
C1612      H1617   1.084       .  S
C1613      C1614   1.420       .  A
C1614      C1618   1.506   1_554  S
C1615      C1620   1.412       .  A
C1615      C1624   1.401       .  A
C1616      H1632   1.110       .  S
C1616      H1633   1.109       .  S
C1616      H1634   1.111       .  S
C1618      H1629   1.111       .  S
C1618      H1630   1.110       .  S
C1618      H1631   1.110       .  S
C1620      C1625   1.506       .  S
C1620      C1621   1.406       .  A
C1621      C1622   1.404       .  A
C1621      H1626   1.084       .  S
C1622      C1623   1.416       .  A
C1623      C1627   1.506       .  S
C1623      C1624   1.404       .  A
C1624      H1628   1.084       .  S
C1625      H1635   1.111       .  S
C1625      H1636   1.110       .  S
C1625      H1637   1.109       .  S
C1627      H1638   1.110       .  S
C1627      H1639   1.105       .  S
C1627      H1640   1.111       .  S
C1641      C1642   1.401       .  A
C1641      C1646   1.405       .  A
C1641      H1651   1.085       .  S
C1642      C1647   1.481       .  S
C1642      C1643   1.408       .  A
C1643      C1648   1.507       .  S
C1643      C1644   1.403       .  A
C1644      C1645   1.406       .  A
C1644      H1649   1.084       .  S
C1645      C1646   1.418       .  A
C1646      C1650   1.508       .  S
C1647      C1652   1.411       .  A
C1647      C1656   1.401       .  A
C1648      H1664   1.110       .  S
C1648      H1665   1.110       .  S
C1648      H1666   1.111       .  S
C1650      H1661   1.111       .  S
C1650      H1662   1.110       .  S
C1650      H1663   1.105       .  S
C1652      C1657   1.506       .  S
C1652      C1653   1.403       .  A
C1653      C1654   1.401       .  A
C1653      H1658   1.084       .  S
C1654      C1655   1.415       .  A
C1655      C1659   1.508       .  S
C1655      C1656   1.403       .  A
C1656      H1660   1.084       .  S
C1657      H1667   1.111       .  S
C1657      H1668   1.110       .  S
C1657      H1669   1.110       .  S
C1659      H1670   1.110       .  S
C1659      H1671   1.108       .  S
C1659      H1672   1.111       .  S
C1673      C1674   1.395       .  A
C1673      C1678   1.404       .  A
C1673      H1683   1.085       .  S
C1674      C1679   1.479       .  S
C1674      C1675   1.404       .  A
C1675      C1680   1.509       .  S
C1675      C1676   1.401       .  A
C1676      C1677   1.415       .  A
C1676      H1681   1.073       .  S
C1677      C1678   1.433       .  A
C1678      C1682   1.513       .  S
C1679      C1684   1.405       .  A
C1679      C1688   1.394       .  A
C1680      H1696   1.110       .  S
C1680      H1697   1.110       .  S
C1680      H1698   1.111       .  S
C1682      H1693   1.111       .  S
C1682      H1694   1.111       .  S
C1682      H1695   1.101       .  S
C1684      C1689   1.509       .  S
C1684      C1685   1.402       .  A
C1685      C1686   1.417       .  A
C1685      H1690   1.074       .  S
C1686      C1687   1.432       .  A
C1687      C1691   1.510       .  S
C1687      C1688   1.402       .  A
C1688      H1692   1.085       .  S
C1689      H1699   1.111       .  S
C1689      H1700   1.110       .  S
C1689      H1701   1.110       .  S
C1691      H1702   1.110       .  S
C1691      H1703   1.099       .  S
C1691      H1704   1.111       .  S
C1705      C1706   1.400       .  A
C1705      C1710   1.407       .  A
C1705      H1715   1.084       .  S
C1706      C1711   1.482       .  S
C1706      C1707   1.408       .  A
C1707      C1712   1.507       .  S
C1707      C1708   1.403       .  A
C1708      C1709   1.409       .  A
C1708      H1713   1.084       .  S
C1709      C1710   1.421       .  A
C1710      C1714   1.507       .  S
C1711      C1716   1.411       .  A
C1711      C1720   1.403       .  A
C1712      H1728   1.110       .  S
C1712      H1729   1.111       .  S
C1712      H1730   1.111       .  S
C1714      H1725   1.110       .  S
C1714      H1726   1.111       .  S
C1714      H1727   1.110       .  S
C1716      C1721   1.506       .  S
C1716      C1717   1.402       .  A
C1717      C1718   1.401       .  A
C1717      H1722   1.083       .  S
C1718      C1719   1.413       .  A
C1719      C1723   1.507       .  S
C1719      C1720   1.404       .  A
C1720      H1724   1.084       .  S
C1721      H1731   1.111       .  S
C1721      H1732   1.110       .  S
C1721      H1733   1.110       .  S
C1723      H1734   1.110       .  S
C1723      H1735   1.108       .  S
C1723      H1736   1.110       .  S
C1737      C1738   1.401       .  A
C1737      C1742   1.404       .  A
C1737      H1747   1.085       .  S
C1738      C1743   1.480       .  S
C1738      C1739   1.408       .  A
C1739      C1744   1.506       .  S
C1739      C1740   1.402       .  A
C1740      C1741   1.406       .  A
C1740      H1745   1.084       .  S
C1741      C1742   1.417       .  A
C1742      C1746   1.506       .  S
C1743      C1748   1.407       .  A
C1743      C1752   1.400       .  A
C1744      H1760   1.110       .  S
C1744      H1761   1.110       .  S
C1744      H1762   1.111       .  S
C1746      H1757   1.110       .  S
C1746      H1758   1.111       .  S
C1746      H1759   1.102       .  S
C1748      C1753   1.507       .  S
C1748      C1749   1.402       .  A
C1749      C1750   1.408       .  A
C1749      H1754   1.084       .  S
C1750      C1751   1.422       .  A
C1751      C1755   1.508   1_554  S
C1751      C1752   1.406       .  A
C1752      H1756   1.084       .  S
C1753      H1763   1.111       .  S
C1753      H1764   1.110       .  S
C1753      H1765   1.110       .  S
C1755      H1766   1.110       .  S
C1755      H1767   1.110       .  S
C1755      H1768   1.111       .  S
C1769      C1770   1.399       .  A
C1769      C1774   1.400       .  A
C1769      H1779   1.085       .  S
C1770      C1775   1.482       .  S
C1770      C1771   1.412       .  A
C1771      C1776   1.508       .  S
C1771      C1772   1.406       .  A
C1772      C1773   1.405       .  A
C1772      H1777   1.082       .  S
C1773      C1774   1.420       .  A
C1774      C1778   1.509       .  S
C1775      C1780   1.412       .  A
C1775      C1784   1.401       .  A
C1776      H1792   1.110       .  S
C1776      H1793   1.107       .  S
C1776      H1794   1.111       .  S
C1778      H1789   1.110       .  S
C1778      H1790   1.111       .  S
C1778      H1791   1.106       .  S
C1780      C1785   1.507       .  S
C1780      C1781   1.405       .  A
C1781      C1782   1.404       .  A
C1781      H1786   1.083       .  S
C1782      C1783   1.413       .  A
C1783      C1787   1.504       .  S
C1783      C1784   1.401       .  A
C1784      H1788   1.085       .  S
C1785      H1795   1.111       .  S
C1785      H1796   1.110       .  S
C1785      H1797   1.107       .  S
C1787      H1798   1.110       .  S
C1787      H1799   1.108       .  S
C1787      H1800   1.109       .  S
C1801      C1802   1.400       .  A
C1801      C1806   1.406       .  A
C1801      H1811   1.084       .  S
C1802      C1807   1.478       .  S
C1802      C1803   1.407       .  A
C1803      C1808   1.507       .  S
C1803      C1804   1.401       .  A
C1804      C1805   1.408       .  A
C1804      H1809   1.084       .  S
C1805      C1806   1.420       .  A
C1806      C1810   1.507       .  S
C1807      C1812   1.408       .  A
C1807      C1816   1.399       .  A
C1808      H1824   1.110       .  S
C1808      H1825   1.110       .  S
C1808      H1826   1.111       .  S
C1810      H1821   1.111       .  S
C1810      H1822   1.110   1_554  S
C1810      H1823   1.110   1_554  S
C1812      C1817   1.507       .  S
C1812      C1813   1.401       .  A
C1813      C1814   1.403       .  A
C1813      H1818   1.077       .  S
C1814      C1815   1.421       .  A
C1815      C1819   1.508       .  S
C1815      C1816   1.404       .  A
C1816      H1820   1.085       .  S
C1817      H1827   1.111       .  S
C1817      H1828   1.110       .  S
C1817      H1829   1.109       .  S
C1819      H1830   1.110       .  S
C1819      H1831   1.107       .  S
C1819      H1832   1.111       .  S
C1833      C1834   1.400       .  A
C1833      C1838   1.401       .  A
C1833      H1843   1.085       .  S
C1834      C1839   1.476       .  S
C1834      C1835   1.411       .  A
C1835      C1840   1.506       .  S
C1835      C1836   1.402       .  A
C1836      C1837   1.402       .  A
C1836      H1841   1.085       .  S
C1837      C1838   1.411       .  A
C1838      C1842   1.502       .  S
C1839      C1844   1.407       .  A
C1839      C1848   1.399       .  A
C1840      H1856   1.110       .  S
C1840      H1857   1.110       .  S
C1840      H1858   1.111       .  S
C1842      H1853   1.108       .  S
C1842      H1854   1.111       .  S
C1842      H1855   1.110       .  S
C1844      C1849   1.507       .  S
C1844      C1845   1.400       .  A
C1845      C1846   1.407       .  A
C1845      H1850   1.084       .  S
C1846      C1847   1.419       .  A
C1847      C1851   1.507       .  S
C1847      C1848   1.403       .  A
C1848      H1852   1.085       .  S
C1849      H1859   1.111       .  S
C1849      H1860   1.110       .  S
C1849      H1861   1.110       .  S
C1851      H1862   1.111       .  S
C1851      H1863   1.110       .  S
C1851      H1864   1.110       .  S
C1865      C1866   1.401       .  A
C1865      C1870   1.402       .  A
C1865      H1875   1.085       .  S
C1866      C1871   1.485       .  S
C1866      C1867   1.413       .  A
C1867      C1872   1.506       .  S
C1867      C1868   1.404       .  A
C1868      C1869   1.401       .  A
C1868      H1873   1.084       .  S
C1869      C1870   1.419       .  A
C1870      C1874   1.509       .  S
C1871      C1876   1.412       .  A
C1871      C1880   1.400       .  A
C1872      H1888   1.109       .  S
C1872      H1889   1.110       .  S
C1872      H1890   1.111       .  S
C1874      H1885   1.110       .  S
C1874      H1886   1.111       .  S
C1874      H1887   1.106       .  S
C1876      C1881   1.507       .  S
C1876      C1877   1.406       .  A
C1877      C1878   1.405       .  A
C1877      H1882   1.084       .  S
C1878      C1879   1.420       .  A
C1879      C1883   1.508       .  S
C1879      C1880   1.403       .  A
C1880      H1884   1.084       .  S
C1881      H1891   1.111       .  S
C1881      H1892   1.109       .  S
C1881      H1893   1.110       .  S
C1883      H1894   1.111       .  S
C1883      H1895   1.110       .  S
C1883      H1896   1.110       .  S
C1897      C1898   1.403       .  A
C1897      C1902   1.405       .  A
C1897      H1907   1.084       .  S
C1898      C1903   1.483       .  S
C1898      C1899   1.411       .  A
C1899      C1904   1.506       .  S
C1899      C1900   1.403       .  A
C1900      C1901   1.402       .  A
C1900      H1905   1.085       .  S
C1901      C1902   1.414       .  A
C1902      C1906   1.507       .  S
C1903      C1908   1.409       .  A
C1903      C1912   1.399       .  A
C1904      H1920   1.110       .  S
C1904      H1921   1.110       .  S
C1904      H1922   1.111       .  S
C1906      H1917   1.110       .  S
C1906      H1918   1.111       .  S
C1906      H1919   1.108       .  S
C1908      C1913   1.506       .  S
C1908      C1909   1.405       .  A
C1909      C1910   1.408       .  A
C1909      H1914   1.084   1_554  S
C1910      C1911   1.423       .  A
C1911      C1915   1.508       .  S
C1911      C1912   1.406       .  A
C1912      H1916   1.085       .  S
C1913      H1923   1.111       .  S
C1913      H1924   1.110       .  S
C1913      H1925   1.110       .  S
C1915      H1926   1.110       .  S
C1915      H1927   1.111       .  S
C1915      H1928   1.111       .  S
C1929      C1930   1.396       .  A
C1929      C1934   1.404       .  A
C1929      H1939   1.085       .  S
C1930      C1935   1.480       .  S
C1930      C1931   1.404       .  A
C1931      C1936   1.509       .  S
C1931      C1932   1.401       .  A
C1932      C1933   1.416       .  A
C1932      H1937   1.073       .  S
C1933      C1934   1.432       .  A
C1934      C1938   1.512       .  S
C1935      C1940   1.405       .  A
C1935      C1944   1.396       .  A
C1936      H1952   1.110       .  S
C1936      H1953   1.110       .  S
C1936      H1954   1.111       .  S
C1938      H1949   1.111       .  S
C1938      H1950   1.110       .  S
C1938      H1951   1.101       .  S
C1940      C1945   1.508       .  S
C1940      C1941   1.402       .  A
C1941      C1942   1.415       .  A
C1941      H1946   1.075       .  S
C1942      C1943   1.431       .  A
C1943      C1947   1.512       .  S
C1943      C1944   1.403       .  A
C1944      H1948   1.085       .  S
C1945      H1955   1.111       .  S
C1945      H1956   1.110       .  S
C1945      H1957   1.110       .  S
C1947      H1958   1.111       .  S
C1947      H1959   1.102       .  S
C1947      H1960   1.111       .  S
C1961      C1962   1.400       .  A
C1961      C1966   1.401       .  A
C1961      H1971   1.085       .  S
C1962      C1967   1.478       .  S
C1962      C1963   1.410       .  A
C1963      C1968   1.507       .  S
C1963      C1964   1.403       .  A
C1964      C1965   1.402       .  A
C1964      H1969   1.081       .  S
C1965      C1966   1.417       .  A
C1966      C1970   1.508       .  S
C1967      C1972   1.409       .  A
C1967      C1976   1.399       .  A
C1968      H1984   1.110       .  S
C1968      H1985   1.107       .  S
C1968      H1986   1.111       .  S
C1970      H1981   1.110       .  S
C1970      H1982   1.111       .  S
C1970      H1983   1.106       .  S
C1972      C1977   1.508       .  S
C1972      C1973   1.402       .  A
C1973      C1974   1.409       .  A
C1973      H1978   1.084       .  S
C1974      C1975   1.421       .  A
C1975      C1979   1.506       .  S
C1975      C1976   1.405       .  A
C1976      H1980   1.085       .  S
C1977      H1987   1.111       .  S
C1977      H1988   1.110       .  S
C1977      H1989   1.107       .  S
C1979      H1990   1.111       .  S
C1979      H1991   1.106       .  S
C1979      H1992   1.105       .  S
C1993      C1994   1.400       .  A
C1993      C1998   1.403       .  A
C1993      H2003   1.085       .  S
C1994      C1999   1.480       .  S
C1994      C1995   1.410       .  A
C1995      C2000   1.507       .  S
C1995      C1996   1.403       .  A
C1996      C1997   1.404       .  A
C1996      H2001   1.084   1_554  S
C1997      C1998   1.418       .  A
C1998      C2002   1.508       .  S
C1999      C2004   1.401       .  A
C1999      C2008   1.395       .  A
C2000      H2016   1.110       .  S
C2000      H2017   1.110       .  S
C2000      H2018   1.111       .  S
C2002      H2013   1.111       .  S
C2002      H2014   1.110       .  S
C2002      H2015   1.107       .  S
C2004      C2009   1.507       .  S
C2004      C2005   1.401       .  A
C2005      C2006   1.419       .  A
C2005      H2010   1.080       .  S
C2006      C2007   1.433       .  A
C2007      C2011   1.504       .  S
C2007      C2008   1.408       .  A
C2008      H2012   1.085       .  S
C2009      H2019   1.111       .  S
C2009      H2020   1.110       .  S
C2009      H2021   1.110       .  S
C2011      H2022   1.109       .  S
C2011      H2023   1.099       .  S
C2011      H2024   1.111       .  S
C2025      C2026   1.400       .  A
C2025      C2030   1.406       .  A
C2025      H2035   1.084       .  S
C2026      C2031   1.480       .  S
C2026      C2027   1.407       .  A
C2027      C2032   1.507       .  S
C2027      C2028   1.403       .  A
C2028      C2029   1.409       .  A
C2028      H2033   1.083       .  S
C2029      C2030   1.421       .  A
C2030      C2034   1.507       .  S
C2031      C2036   1.409       .  A
C2031      C2040   1.399       .  A
C2032      H2048   1.110       .  S
C2032      H2049   1.110       .  S
C2032      H2050   1.111       .  S
C2034      H2045   1.111       .  S
C2034      H2046   1.110       .  S
C2034      H2047   1.110       .  S
C2036      C2041   1.505       .  S
C2036      C2037   1.404       .  A
C2037      C2038   1.405       .  A
C2037      H2042   1.084       .  S
C2038      C2039   1.417       .  A
C2039      C2043   1.504       .  S
C2039      C2040   1.401       .  A
C2040      H2044   1.085       .  S
C2041      H2051   1.111       .  S
C2041      H2052   1.110       .  S
C2041      H2053   1.110       .  S
C2043      H2054   1.110       .  S
C2043      H2055   1.099       .  S
C2043      H2056   1.110       .  S
C2057      C2058   1.396       .  A
C2057      C2062   1.406       .  A
C2057      H2067   1.084       .  S
C2058      C2063   1.485       .  S
C2058      C2059   1.406       .  A
C2059      C2064   1.508       .  S
C2059      C2060   1.404       .  A
C2060      C2061   1.416       .  A
C2060      H2065   1.074       .  S
C2061      C2062   1.433       .  A
C2062      C2066   1.513       .  S
C2063      C2068   1.406       .  A
C2063      C2072   1.397       .  A
C2064      H2080   1.109       .  S
C2064      H2081   1.110       .  S
C2064      H2082   1.111       .  S
C2066      H2077   1.106       .  S
C2066      H2078   1.111       .  S
C2066      H2079   1.104       .  S
C2068      C2073   1.509       .  S
C2068      C2069   1.404       .  A
C2069      C2070   1.416       .  A
C2069      H2074   1.074       .  S
C2070      C2071   1.431       .  A
C2071      C2075   1.511       .  S
C2071      C2072   1.405       .  A
C2072      H2076   1.085       .  S
C2073      H2083   1.111       .  S
C2073      H2084   1.109       .  S
C2073      H2085   1.110       .  S
C2075      H2086   1.110       .  S
C2075      H2087   1.102       .  S
C2075      H2088   1.111       .  S
C2089      C2090   1.400       .  A
C2089      C2094   1.404       .  A
C2089      H2099   1.084       .  S
C2090      C2095   1.479       .  S
C2090      C2091   1.408       .  A
C2091      C2096   1.507       .  S
C2091      C2092   1.401       .  A
C2092      C2093   1.406       .  A
C2092      H2097   1.083       .  S
C2093      C2094   1.420       .  A
C2094      C2098   1.508       .  S
C2095      C2100   1.412       .  A
C2095      C2104   1.400       .  A
C2096      H2112   1.110       .  S
C2096      H2113   1.110       .  S
C2096      H2114   1.111       .  S
C2098      H2109   1.111       .  S
C2098      H2110   1.109       .  S
C2098      H2111   1.107       .  S
C2100      C2105   1.506       .  S
C2100      C2101   1.403       .  A
C2101      C2102   1.402       .  A
C2101      H2106   1.084       .  S
C2102      C2103   1.414       .  A
C2103      C2107   1.508       .  S
C2103      C2104   1.401       .  A
C2104      H2108   1.084       .  S
C2105      H2115   1.111       .  S
C2105      H2116   1.110       .  S
C2105      H2117   1.110       .  S
C2107      H2118   1.108       .  S
C2107      H2119   1.109       .  S
C2107      H2120   1.111       .  S
C2121      C2122   1.397       .  A
C2121      C2126   1.403       .  A
C2121      H2131   1.085       .  S
C2122      C2127   1.478       .  S
C2122      C2123   1.408       .  A
C2123      C2128   1.506       .  S
C2123      C2124   1.404       .  A
C2124      C2125   1.408       .  A
C2124      H2129   1.084       .  S
C2125      C2126   1.423       .  A
C2126      C2130   1.508       .  S
C2127      C2132   1.409       .  A
C2127      C2136   1.401       .  A
C2128      H2144   1.110       .  S
C2128      H2145   1.110       .  S
C2128      H2146   1.111       .  S
C2130      H2141   1.110       .  S
C2130      H2142   1.111       .  S
C2130      H2143   1.110       .  S
C2132      C2137   1.506       .  S
C2132      C2133   1.401       .  A
C2133      C2134   1.404       .  A
C2133      H2138   1.084       .  S
C2134      C2135   1.417       .  A
C2135      C2139   1.507       .  S
C2135      C2136   1.405       .  A
C2136      H2140   1.084       .  S
C2137      H2147   1.111       .  S
C2137      H2148   1.110       .  S
C2137      H2149   1.110       .  S
C2139      H2150   1.107       .  S
C2139      H2151   1.107       .  S
C2139      H2152   1.111       .  S
C2153      C2154   1.404       .  A
C2153      C2158   1.405       .  A
C2153      H2163   1.084       .  S
C2154      C2159   1.485       .  S
C2154      C2155   1.412       .  A
C2155      C2160   1.507       .  S
C2155      C2156   1.403       .  A
C2156      C2157   1.401       .  A
C2156      H2161   1.084       .  S
C2157      C2158   1.413       .  A
C2158      C2162   1.507       .  S
C2159      C2164   1.412       .  A
C2159      C2168   1.401       .  A
C2160      H2176   1.110       .  S
C2160      H2177   1.110       .  S
C2160      H2178   1.111       .  S
C2162      H2173   1.110       .  S
C2162      H2174   1.110       .  S
C2162      H2175   1.107       .  S
C2164      C2169   1.506       .  S
C2164      C2165   1.406       .  A
C2165      C2166   1.404       .  A
C2165      H2170   1.084       .  S
C2166      C2167   1.418       .  A
C2167      C2171   1.509       .  S
C2167      C2168   1.403       .  A
C2168      H2172   1.085       .  S
C2169      H2179   1.111       .  S
C2169      H2180   1.110       .  S
C2169      H2181   1.110       .  S
C2171      H2182   1.110       .  S
C2171      H2183   1.106       .  S
C2171      H2184   1.111       .  S
C2185      C2186   1.402       .  A
C2185      C2190   1.404       .  A
C2185      H2195   1.085       .  S
C2186      C2191   1.480       .  S
C2186      C2187   1.409       .  A
C2187      C2192   1.507       .  S
C2187      C2188   1.402       .  A
C2188      C2189   1.405       .  A
C2188      H2193   1.084       .  S
C2189      C2190   1.416       .  A
C2190      C2194   1.507       .  S
C2191      C2196   1.409       .  A
C2191      C2200   1.400       .  A
C2192      H2208   1.110       .  S
C2192      H2209   1.110       .  S
C2192      H2210   1.111       .  S
C2194      H2205   1.110       .  S
C2194      H2206   1.111       .  S
C2194      H2207   1.106       .  S
C2196      C2201   1.506       .  S
C2196      C2197   1.403       .  A
C2197      C2198   1.406       .  A
C2197      H2202   1.084       .  S
C2198      C2199   1.417       .  A
C2199      C2203   1.505       .  S
C2199      C2200   1.403       .  A
C2200      H2204   1.085       .  S
C2201      H2211   1.111       .  S
C2201      H2212   1.110       .  S
C2201      H2213   1.110       .  S
C2203      H2214   1.111       .  S
C2203      H2215   1.102       .  S
C2203      H2216   1.110       .  S
C2217      C2218   1.398       .  A
C2217      C2222   1.403       .  A
C2217      H2227   1.085       .  S
C2218      C2223   1.480       .  S
C2218      C2219   1.408       .  A
C2219      C2224   1.506       .  S
C2219      C2220   1.404       .  A
C2220      C2221   1.408       .  A
C2220      H2225   1.084       .  S
C2221      C2222   1.422       .  A
C2222      C2226   1.508       .  S
C2223      C2228   1.410       .  A
C2223      C2232   1.399       .  A
C2224      H2240   1.110       .  S
C2224      H2241   1.110       .  S
C2224      H2242   1.111       .  S
C2226      H2237   1.110       .  S
C2226      H2238   1.111       .  S
C2226      H2239   1.110       .  S
C2228      C2233   1.506       .  S
C2228      C2229   1.403       .  A
C2229      C2230   1.404       .  A
C2229      H2234   1.084       .  S
C2230      C2231   1.420       .  A
C2231      C2235   1.508       .  S
C2231      C2232   1.405       .  A
C2232      H2236   1.084       .  S
C2233      H2243   1.111       .  S
C2233      H2244   1.110       .  S
C2233      H2245   1.110       .  S
C2235      H2246   1.111       .  S
C2235      H2247   1.109       .  S
C2235      H2248   1.107       .  S
C2249      C2250   1.400       .  A
C2249      C2254   1.404       .  A
C2249      H2259   1.085       .  S
C2250      C2255   1.487       .  S
C2250      C2251   1.410       .  A
C2251      C2256   1.505       .  S
C2251      C2252   1.407       .  A
C2252      C2253   1.407       .  A
C2252      H2257   1.083       .  S
C2253      C2254   1.422       .  A
C2254      C2258   1.509       .  S
C2255      C2260   1.410       .  A
C2255      C2264   1.401       .  A
C2256      H2272   1.110       .  S
C2256      H2273   1.110       .  S
C2256      H2274   1.111       .  S
C2258      H2269   1.110       .  S
C2258      H2270   1.111       .  S
C2258      H2271   1.106       .  S
C2260      C2265   1.506       .  S
C2260      C2261   1.405       .  A
C2261      C2262   1.407       .  A
C2261      H2266   1.084       .  S
C2262      C2263   1.422       .  A
C2263      C2267   1.505       .  S
C2263      C2264   1.408       .  A
C2264      H2268   1.085       .  S
C2265      H2275   1.111       .  S
C2265      H2276   1.110       .  S
C2265      H2277   1.110       .  S
C2267      H2278   1.111       .  S
C2267      H2279   1.098       .  S
C2267      H2280   1.110       .  S
C2281      C2282   1.401       .  A
C2281      C2286   1.406       .  A
C2281      H2291   1.084       .  S
C2282      C2287   1.485       .  S
C2282      C2283   1.411       .  A
C2283      C2288   1.506       .  S
C2283      C2284   1.404       .  A
C2284      C2285   1.405       .  A
C2284      H2289   1.084       .  S
C2285      C2286   1.417       .  A
C2286      C2290   1.506       .  S
C2287      C2292   1.409       .  A
C2287      C2296   1.400       .  A
C2288      H2304   1.110       .  S
C2288      H2305   1.110       .  S
C2288      H2306   1.111       .  S
C2290      H2301   1.106       .  S
C2290      H2302   1.111       .  S
C2290      H2303   1.109       .  S
C2292      C2297   1.507       .  S
C2292      C2293   1.405       .  A
C2293      C2294   1.410       .  A
C2293      H2298   1.083       .  S
C2294      C2295   1.421       .  A
C2295      C2299   1.507       .  S
C2295      C2296   1.407       .  A
C2296      H2300   1.084       .  S
C2297      H2307   1.111       .  S
C2297      H2308   1.110       .  S
C2297      H2309   1.110       .  S
C2299      H2310   1.110   1_556  S
C2299      H2311   1.110   1_556  S
C2299      H2312   1.111       .  S
C2313      C2314   1.402       .  A
C2313      C2318   1.404       .  A
C2313      H2323   1.084       .  S
C2314      C2319   1.486       .  S
C2314      C2315   1.412       .  A
C2315      C2320   1.506       .  S
C2315      C2316   1.406       .  A
C2316      C2317   1.403       .  A
C2316      H2321   1.083       .  S
C2317      C2318   1.415       .  A
C2318      C2322   1.507       .  S
C2319      C2324   1.409       .  A
C2319      C2328   1.402       .  A
C2320      H2336   1.110       .  S
C2320      H2337   1.110       .  S
C2320      H2338   1.111       .  S
C2322      H2333   1.110       .  S
C2322      H2334   1.110       .  S
C2322      H2335   1.106       .  S
C2324      C2329   1.507       .  S
C2324      C2325   1.404       .  A
C2325      C2326   1.408       .  A
C2325      H2330   1.084       .  S
C2326      C2327   1.419       .  A
C2327      C2331   1.507       .  S
C2327      C2328   1.408       .  A
C2328      H2332   1.084       .  S
C2329      H2339   1.111       .  S
C2329      H2340   1.110       .  S
C2329      H2341   1.110       .  S
C2331      H2342   1.111       .  S
C2331      H2343   1.110       .  S
C2331      H2344   1.110       .  S
C2345      C2346   1.400       .  A
C2345      C2350   1.406       .  A
C2345      H2355   1.084       .  S
C2346      C2351   1.484       .  S
C2346      C2347   1.410       .  A
C2347      C2352   1.507       .  S
C2347      C2348   1.406       .  A
C2348      C2349   1.408       .  A
C2348      H2353   1.084       .  S
C2349      C2350   1.418       .  A
C2350      C2354   1.507       .  S
C2351      C2356   1.412       .  A
C2351      C2360   1.401       .  A
C2352      H2368   1.110       .  S
C2352      H2369   1.110       .  S
C2352      H2370   1.111       .  S
C2354      H2365   1.111       .  S
C2354      H2366   1.110       .  S
C2354      H2367   1.110       .  S
C2356      C2361   1.506       .  S
C2356      C2357   1.407       .  A
C2357      C2358   1.404       .  A
C2357      H2362   1.084       .  S
C2358      C2359   1.414       .  A
C2359      C2363   1.507       .  S
C2359      C2360   1.402       .  A
C2360      H2364   1.084       .  S
C2361      H2371   1.111       .  S
C2361      H2372   1.110       .  S
C2361      H2373   1.110       .  S
C2363      H2374   1.110       .  S
C2363      H2375   1.107       .  S
C2363      H2376   1.110       .  S
C2377      C2378   1.401       .  A
C2377      C2382   1.408       .  A
C2377      H2387   1.084       .  S
C2378      C2383   1.485       .  S
C2378      C2379   1.409       .  A
C2379      C2384   1.506       .  S
C2379      C2380   1.404       .  A
C2380      C2381   1.407       .  A
C2380      H2385   1.084       .  S
C2381      C2382   1.422       .  A
C2382      C2386   1.508       .  S
C2383      C2388   1.409       .  A
C2383      C2392   1.400       .  A
C2384      H2400   1.110       .  S
C2384      H2401   1.110       .  S
C2384      H2402   1.111       .  S
C2386      H2397   1.111       .  S
C2386      H2398   1.110       .  S
C2386      H2399   1.111       .  S
C2388      C2393   1.506       .  S
C2388      C2389   1.405       .  A
C2389      C2390   1.408       .  A
C2389      H2394   1.084       .  S
C2390      C2391   1.419       .  A
C2391      C2395   1.507       .  S
C2391      C2392   1.406       .  A
C2392      H2396   1.084       .  S
C2393      H2403   1.111       .  S
C2393      H2404   1.110       .  S
C2393      H2405   1.110       .  S
C2395      H2406   1.105       .  S
C2395      H2407   1.106       .  S
C2395      H2408   1.111       .  S
C2409      C2410   1.398       .  A
C2409      C2414   1.408       .  A
C2409      H2419   1.085       .  S
C2410      C2415   1.493       .  S
C2410      C2411   1.408       .  A
C2411      C2416   1.509       .  S
C2411      C2412   1.406       .  A
C2412      C2413   1.417       .  A
C2412      H2417   1.074       .  S
C2413      C2414   1.432       .  A
C2414      C2418   1.511       .  S
C2415      C2420   1.408       .  A
C2415      C2424   1.398       .  A
C2416      H2432   1.109       .  S
C2416      H2433   1.110       .  S
C2416      H2434   1.111       .  S
C2418      H2429   1.111       .  S
C2418      H2430   1.110       .  S
C2418      H2431   1.101       .  S
C2420      C2425   1.508       .  S
C2420      C2421   1.408       .  A
C2421      C2422   1.416       .  A
C2421      H2426   1.074       .  S
C2422      C2423   1.433       .  A
C2423      C2427   1.512       .  S
C2423      C2424   1.407       .  A
C2424      H2428   1.085       .  S
C2425      H2435   1.111       .  S
C2425      H2436   1.109       .  S
C2425      H2437   1.110       .  S
C2427      H2438   1.110       .  S
C2427      H2439   1.100       .  S
C2427      H2440   1.111       .  S
C2441      C2442   1.400       .  A
C2441      C2446   1.405       .  A
C2441      H2451   1.085       .  S
C2442      C2447   1.487       .  S
C2442      C2443   1.411       .  A
C2443      C2448   1.506       .  S
C2443      C2444   1.406       .  A
C2444      C2445   1.406       .  A
C2444      H2449   1.084       .  S
C2445      C2446   1.421       .  A
C2446      C2450   1.506       .  S
C2447      C2452   1.411       .  A
C2447      C2456   1.400       .  A
C2448      H2464   1.110       .  S
C2448      H2465   1.110       .  S
C2448      H2466   1.111       .  S
C2450      H2461   1.111       .  S
C2450      H2462   1.110       .  S
C2450      H2463   1.101       .  S
C2452      C2457   1.506       .  S
C2452      C2453   1.407       .  A
C2453      C2454   1.405       .  A
C2453      H2458   1.083       .  S
C2454      C2455   1.420       .  A
C2455      C2459   1.509       .  S
C2455      C2456   1.406       .  A
C2456      H2460   1.084       .  S
C2457      H2467   1.111       .  S
C2457      H2468   1.110       .  S
C2457      H2469   1.110       .  S
C2459      H2470   1.107       .  S
C2459      H2471   1.107       .  S
C2459      H2472   1.111       .  S
C2473      C2474   1.401       .  A
C2473      C2478   1.402       .  A
C2473      H2483   1.084       .  S
C2474      C2479   1.482       .  S
C2474      C2475   1.411       .  A
C2475      C2480   1.505       .  S
C2475      C2476   1.406       .  A
C2476      C2477   1.403       .  A
C2476      H2481   1.084       .  S
C2477      C2478   1.412       .  A
C2478      C2482   1.504       .  S
C2479      C2484   1.410       .  A
C2479      C2488   1.399       .  A
C2480      H2496   1.110       .  S
C2480      H2497   1.110       .  S
C2480      H2498   1.111       .  S
C2482      H2493   1.111       .  S
C2482      H2494   1.108       .  S
C2482      H2495   1.109       .  S
C2484      C2489   1.506       .  S
C2484      C2485   1.404       .  A
C2485      C2486   1.407       .  A
C2485      H2490   1.084       .  S
C2486      C2487   1.422       .  A
C2487      C2491   1.508       .  S
C2487      C2488   1.404       .  A
C2488      H2492   1.084       .  S
C2489      H2499   1.111       .  S
C2489      H2500   1.110       .  S
C2489      H2501   1.110       .  S
C2491      H2502   1.110       .  S
C2491      H2503   1.111       .  S
C2491      H2504   1.111       .  S
C2505      C2506   1.401       .  A
C2505      C2510   1.403       .  A
C2505      H2515   1.085       .  S
C2506      C2511   1.485       .  S
C2506      C2507   1.412       .  A
C2507      C2512   1.506       .  S
C2507      C2508   1.406       .  A
C2508      C2509   1.403       .  A
C2508      H2513   1.084       .  S
C2509      C2510   1.417       .  A
C2510      C2514   1.508       .  S
C2511      C2516   1.410       .  A
C2511      C2520   1.401       .  A
C2512      H2528   1.110       .  S
C2512      H2529   1.110       .  S
C2512      H2530   1.111       .  S
C2514      H2525   1.110       .  S
C2514      H2526   1.110       .  S
C2514      H2527   1.107       .  S
C2516      C2521   1.507       .  S
C2516      C2517   1.405       .  A
C2517      C2518   1.406       .  A
C2517      H2522   1.084       .  S
C2518      C2519   1.418       .  A
C2519      C2523   1.508       .  S
C2519      C2520   1.406       .  A
C2520      H2524   1.084       .  S
C2521      H2531   1.111       .  S
C2521      H2532   1.110       .  S
C2521      H2533   1.110       .  S
C2523      H2534   1.110       .  S
C2523      H2535   1.106       .  S
C2523      H2536   1.111       .  S
C2537      C2538   1.402       .  A
C2537      C2542   1.404       .  A
C2537      H2547   1.084       .  S
C2538      C2543   1.488       .  S
C2538      C2539   1.414       .  A
C2539      C2544   1.507       .  S
C2539      C2540   1.404       .  A
C2540      C2541   1.402       .  A
C2540      H2545   1.084       .  S
C2541      C2542   1.418       .  A
C2542      C2546   1.506       .  S
C2543      C2548   1.413       .  A
C2543      C2552   1.401       .  A
C2544      H2560   1.108       .  S
C2544      H2561   1.110       .  S
C2544      H2562   1.111       .  S
C2546      H2557   1.110       .  S
C2546      H2558   1.111       .  S
C2546      H2559   1.103       .  S
C2548      C2553   1.507       .  S
C2548      C2549   1.406       .  A
C2549      C2550   1.406       .  A
C2549      H2554   1.084       .  S
C2550      C2551   1.419       .  A
C2551      C2555   1.508       .  S
C2551      C2552   1.403       .  A
C2552      H2556   1.084       .  S
C2553      H2563   1.111       .  S
C2553      H2564   1.109       .  S
C2553      H2565   1.110       .  S
C2555      H2566   1.111       .  S
C2555      H2567   1.110       .  S
C2555      H2568   1.110       .  S
C2569      C2570   1.400       .  A
C2569      C2574   1.403       .  A
C2569      H2579   1.084       .  S
C2570      C2575   1.482       .  S
C2570      C2571   1.411       .  A
C2571      C2576   1.506       .  S
C2571      C2572   1.405       .  A
C2572      C2573   1.404       .  A
C2572      H2577   1.084       .  S
C2573      C2574   1.417       .  A
C2574      C2578   1.508       .  S
C2575      C2580   1.409       .  A
C2575      C2584   1.398       .  A
C2576      H2592   1.110       .  S
C2576      H2593   1.110       .  S
C2576      H2594   1.111       .  S
C2578      H2589   1.110       .  S
C2578      H2590   1.111       .  S
C2578      H2591   1.107       .  S
C2580      C2585   1.506       .  S
C2580      C2581   1.405       .  A
C2581      C2582   1.408       .  A
C2581      H2586   1.084       .  S
C2582      C2583   1.423       .  A
C2583      C2587   1.508       .  S
C2583      C2584   1.405       .  A
C2584      H2588   1.084       .  S
C2585      H2595   1.111       .  S
C2585      H2596   1.110       .  S
C2585      H2597   1.110       .  S
C2587      H2598   1.111       .  S
C2587      H2599   1.110       .  S
C2587      H2600   1.110       .  S
C2601      C2602   1.398       .  A
C2601      C2606   1.408       .  A
C2601      H2611   1.085       .  S
C2602      C2607   1.489       .  S
C2602      C2603   1.406       .  A
C2603      C2608   1.508       .  S
C2603      C2604   1.406       .  A
C2604      C2605   1.416       .  A
C2604      H2609   1.075       .  S
C2605      C2606   1.432       .  A
C2606      C2610   1.511       .  S
C2607      C2612   1.405       .  A
C2607      C2616   1.398       .  A
C2608      H2624   1.110       .  S
C2608      H2625   1.111       .  S
C2608      H2626   1.110       .  S
C2610      H2621   1.111       .  S
C2610      H2622   1.110       .  S
C2610      H2623   1.102       .  S
C2612      C2617   1.508       .  S
C2612      C2613   1.404       .  A
C2613      C2614   1.417       .  A
C2613      H2618   1.072       .  S
C2614      C2615   1.432       .  A
C2615      C2619   1.509       .  S
C2615      C2616   1.408       .  A
C2616      H2620   1.085       .  S
C2617      H2627   1.111       .  S
C2617      H2628   1.110       .  S
C2617      H2629   1.110       .  S
C2619      H2630   1.110       .  S
C2619      H2631   1.099       .  S
C2619      H2632   1.111       .  S
C2633      C2634   1.396       .  A
C2633      C2638   1.404       .  A
C2633      H2643   1.085       .  S
C2634      C2639   1.486       .  S
C2634      C2635   1.406       .  A
C2635      C2640   1.508       .  S
C2635      C2636   1.405       .  A
C2636      C2637   1.416       .  A
C2636      H2641   1.073       .  S
C2637      C2638   1.432       .  A
C2638      C2642   1.510       .  S
C2639      C2644   1.406       .  A
C2639      C2648   1.397       .  A
C2640      H2656   1.109       .  S
C2640      H2657   1.110       .  S
C2640      H2658   1.111       .  S
C2642      H2653   1.111       .  S
C2642      H2654   1.111       .  S
C2642      H2655   1.098       .  S
C2644      C2649   1.509       .  S
C2644      C2645   1.404       .  A
C2645      C2646   1.417       .  A
C2645      H2650   1.073       .  S
C2646      C2647   1.432       .  A
C2647      C2651   1.511       .  S
C2647      C2648   1.406       .  A
C2648      H2652   1.085       .  S
C2649      H2659   1.111       .  S
C2649      H2660   1.109       .  S
C2649      H2661   1.110       .  S
C2651      H2662   1.111       .  S
C2651      H2663   1.099       .  S
C2651      H2664   1.111       .  S
C2665      C2666   1.399       .  A
C2665      C2670   1.402       .  A
C2665      H2675   1.085       .  S
C2666      C2671   1.480       .  S
C2666      C2667   1.409       .  A
C2667      C2672   1.507       .  S
C2667      C2668   1.405       .  A
C2668      C2669   1.406       .  A
C2668      H2673   1.079       .  S
C2669      C2670   1.420       .  A
C2670      C2674   1.509       .  S
C2671      C2676   1.410       .  A
C2671      C2680   1.399       .  A
C2672      H2688   1.110       .  S
C2672      H2689   1.109       .  S
C2672      H2690   1.111       .  S
C2674      H2685   1.110       .  S
C2674      H2686   1.111       .  S
C2674      H2687   1.106       .  S
C2676      C2681   1.507       .  S
C2676      C2677   1.404       .  A
C2677      C2678   1.407       .  A
C2677      H2682   1.084       .  S
C2678      C2679   1.418       .  A
C2679      C2683   1.506       .  S
C2679      C2680   1.404       .  A
C2680      H2684   1.084       .  S
C2681      H2691   1.111       .  S
C2681      H2692   1.110       .  S
C2681      H2693   1.109       .  S
C2683      H2694   1.111       .  S
C2683      H2695   1.107       .  S
C2683      H2696   1.106       .  S
C2697      C2698   1.400       .  A
C2697      C2702   1.402       .  A
C2697      H2707   1.085       .  S
C2698      C2703   1.480       .  S
C2698      C2699   1.410       .  A
C2699      C2704   1.506       .  S
C2699      C2700   1.404       .  A
C2700      C2701   1.406       .  A
C2700      H2705   1.084       .  S
C2701      C2702   1.416       .  A
C2702      C2706   1.504       .  S
C2703      C2708   1.412       .  A
C2703      C2712   1.400       .  A
C2704      H2720   1.110       .  S
C2704      H2721   1.108       .  S
C2704      H2722   1.111       .  S
C2706      H2717   1.110       .  S
C2706      H2718   1.110       .  S
C2706      H2719   1.099       .  S
C2708      C2713   1.507       .  S
C2708      C2709   1.405       .  A
C2709      C2710   1.404       .  A
C2709      H2714   1.084       .  S
C2710      C2711   1.416       .  A
C2711      C2715   1.509       .  S
C2711      C2712   1.401       .  A
C2712      H2716   1.085       .  S
C2713      H2723   1.111       .  S
C2713      H2724   1.110       .  S
C2713      H2725   1.108       .  S
C2715      H2726   1.110       .  S
C2715      H2727   1.107       .  S
C2715      H2728   1.111       .  S
C2729      C2730   1.399       .  A
C2729      C2734   1.402       .  A
C2729      H2739   1.085       .  S
C2730      C2735   1.479       .  S
C2730      C2731   1.409       .  A
C2731      C2736   1.506       .  S
C2731      C2732   1.403       .  A
C2732      C2733   1.403       .  A
C2732      H2737   1.080       .  S
C2733      C2734   1.418       .  A
C2734      C2738   1.506       .  S
C2735      C2740   1.408       .  A
C2735      C2744   1.399       .  A
C2736      H2752   1.110       .  S
C2736      H2753   1.110       .  S
C2736      H2754   1.111       .  S
C2738      H2749   1.111       .  S
C2738      H2750   1.110       .  S
C2738      H2751   1.103       .  S
C2740      C2745   1.507       .  S
C2740      C2741   1.403       .  A
C2741      C2742   1.409       .  A
C2741      H2746   1.083       .  S
C2742      C2743   1.421       .  A
C2743      C2747   1.507       .  S
C2743      C2744   1.405       .  A
C2744      H2748   1.084       .  S
C2745      H2755   1.111       .  S
C2745      H2756   1.110       .  S
C2745      H2757   1.110       .  S
C2747      H2758   1.110       .  S
C2747      H2759   1.110       .  S
C2747      H2760   1.111       .  S
