geometry optimzed in LAMMPS
_audit_creation_date              2020-11-30 
_audit_creation_method            'lammps2cif' 
_symmetry_space_group_name_H-M    'P1' 
_symmetry_Int_Tables_number       1 
_symmetry_cell_setting            triclinic 
loop_ 
_symmetry_equiv_pos_as_xyz 
  x,y,z 
_cell_length_a                    35.18422448 
_cell_length_b                    35.1659104276671 
_cell_length_c                    43.52557455131249 
_cell_angle_alpha                 89.97727198984018 
_cell_angle_beta                  90.04466357142047 
_cell_angle_gamma                 90.37575164053307 
loop_ 
_atom_site_label 
_atom_site_type_symbol 
_atom_site_fract_x 
_atom_site_fract_y 
_atom_site_fract_z 
_atom_site_charge 
O1          O  0.05897447  0.49448988  0.48013854    -0.73900
O2          O  0.44219887  0.00816811  0.46166799    -0.73900
O3          O  0.00892933  0.05206729  0.45897435    -0.73900
O4          O  0.50641112  0.44581657  0.48007374    -0.74000
O5          O  0.99255195  0.45037299  0.03400602    -0.73900
O6          O  0.50436352  0.05505039  0.01031880    -0.73900
O7          O  0.44360095  0.50852947  0.02878648    -0.73900
O8          O  0.05797971  0.99809513  0.02332678    -0.73900
Ni9        Ni  0.00018526  0.99825828  0.45671208     1.25400
Ni10       Ni  0.50212846  0.00081718  0.01558687     1.25400
C11         C  0.06644451  0.49210534  0.99746048     0.88300
C12         C  0.42960214  0.00490933  0.98885597     0.88200
C13         C  0.50486043  0.07384909  0.48196373     0.88300
C14         C  0.99941853  0.42705364  0.50789127     0.88400
O15         O  0.99631913  0.44688409  0.28203294    -0.73900
O16         O  0.50060798  0.06068162  0.26961866    -0.73900
O17         O  0.45172534  0.49603270  0.28442746    -0.73900
O18         O  0.05533102  0.00526414  0.28155503    -0.74000
O19         O  0.05844571  0.49425394  0.23006497    -0.73900
O20         O  0.45364634  0.98895307  0.22699425    -0.73900
O21         O  0.01154522  0.04506562  0.21866756    -0.73900
O22         O  0.50101069  0.44662066  0.22759413    -0.73900
Ni23       Ni  0.50589041  0.50162555  0.28008203     1.25400
Ni24       Ni  0.50759673  0.99501670  0.22584248     1.25400
C25         C  0.50756795  0.42936228  0.25297953     0.88300
C26         C  0.49933418  0.07209376  0.24169920     0.88200
C27         C  0.42971206  0.49437990  0.26099597     0.88300
C28         C  0.07230798  0.49955549  0.25697587     0.88400
O29         O  0.03519536  0.24335794  0.45569750    -0.73900
O30         O  0.03132892  0.24786511  0.04351838    -0.73900
O31         O  0.02937614  0.19043590  0.50047363    -0.73900
O32         O  0.03505444  0.30232785  0.99915172    -0.74000
O33         O  0.47834164  0.31085578  0.49310255    -0.73900
O34         O  0.46095112  0.19712010  0.99420367    -0.73900
O35         O  0.46740867  0.25154040  0.03751249    -0.73900
O36         O  0.47058610  0.25681719  0.44881267    -0.73900
Ni37       Ni  0.03758223  0.24439680  0.49962468     1.25400
Ni38       Ni  0.46298657  0.25171158  0.99374427     1.25400
C39         C  0.00364201  0.24637008  0.44122338     0.88300
C40         C  0.99987025  0.24973949  0.05829538     0.88200
C41         C  0.99588581  0.17594766  0.50117699     0.88300
C42         C  0.00480227  0.32234514  0.99974576     0.88400
O43         O  0.04113801  0.29543249  0.24820601    -0.73900
O44         O  0.02542372  0.18760743  0.24958566    -0.73900
O45         O  0.03225293  0.24102716  0.20528724    -0.73900
O46         O  0.03411813  0.24214921  0.29327085    -0.74000
O47         O  0.47027985  0.24939906  0.28633899    -0.73900
O48         O  0.47124042  0.24519195  0.19850374    -0.73900
O49         O  0.47763591  0.19319755  0.24404258    -0.73900
O50         O  0.46396688  0.30125692  0.24022068    -0.73900
Ni51       Ni  0.03546195  0.24122144  0.24912477     1.25400
Ni52       Ni  0.46853608  0.24694417  0.24228812     1.25400
C53         C  0.49328898  0.32301156  0.24006953     0.88300
C54         C  0.51136550  0.17977020  0.24557841     0.88200
C55         C  0.50272313  0.24887724  0.18403257     0.88300
C56         C  0.50157825  0.25398333  0.30103919     0.88400
O57         O  0.24604303  0.46483600  0.04266693    -0.73900
O58         O  0.25655437  0.46880894  0.45531926    -0.73900
O59         O  0.29542635  0.46114808  0.99468788    -0.73900
O60         O  0.20118524  0.46074454  0.49743973    -0.74000
O61         O  0.20167612  0.03441641  0.01037110    -0.73900
O62         O  0.30460682  0.02445365  0.50616299    -0.73900
O63         O  0.24855129  0.02677994  0.46375482    -0.73900
O64         O  0.25888558  0.03007200  0.05164045    -0.73900
Ni65       Ni  0.24130493  0.46434252  0.99867958     1.25400
Ni66       Ni  0.25034243  0.02926634  0.50773581     1.25400
C67         C  0.25574436  0.99885492  0.06667376     0.88300
C68         C  0.24816432  0.99501100  0.44930277     0.88200
C69         C  0.32206784  0.51092503  0.50122706     0.88300
C70         C  0.17349590  0.50544085  0.00478467     0.88400
O71         O  0.25282102  0.46471305  0.29358604    -0.73900
O72         O  0.25688971  0.46329944  0.20552965    -0.73900
O73         O  0.30891245  0.47075938  0.25138894    -0.73900
O74         O  0.20077068  0.45708517  0.24753457    -0.74000
O75         O  0.19889165  0.02127697  0.25549102    -0.73900
O76         O  0.30670994  0.03524069  0.26184564    -0.73900
O77         O  0.25630049  0.02957798  0.21449062    -0.73900
O78         O  0.24924714  0.02701954  0.30221186    -0.73900
Ni79       Ni  0.25509866  0.46168121  0.24960190     1.25400
Ni80       Ni  0.25252674  0.03051884  0.25850098     1.25400
C81         C  0.25012657  0.49660142  0.30768815     0.88300
C82         C  0.25244886  0.49443916  0.19065926     0.88200
C83         C  0.32282179  0.50446173  0.24974157     0.88300
C84         C  0.17929357  0.48632784  0.24772710     0.88400
C85         C  0.24498687  0.02897052  0.39882350    -0.12800
C86         C  0.25208330  0.49942691  0.40662676     0.09400
C87         C  0.25578330  0.46481776  0.39074981    -0.12800
C88         C  0.25491104  0.46386886  0.35867461    -0.12800
C89         C  0.25038501  0.49751217  0.34170233     0.09400
C90         C  0.24579489  0.02896302  0.36675310    -0.12800
H91         H  0.24160510  0.05579039  0.41070397     0.13400
H92         H  0.25925492  0.43833108  0.40310208     0.12400
H93         H  0.25790347  0.43673989  0.34718791     0.13400
H94         H  0.24310110  0.05582427  0.35480268     0.13400
C95         C  0.25634334  0.03346833  0.11710832    -0.12800
C96         C  0.25244495  0.49504769  0.09173980     0.09400
C97         C  0.25241946  0.46041632  0.10789722    -0.12800
C98         C  0.25290701  0.46007689  0.14005836    -0.12800
C99         C  0.25315335  0.49436483  0.15666238     0.09400
C100        C  0.25781245  0.03340804  0.14923843    -0.12800
H101        H  0.25314783  0.06030943  0.10521078     0.13400
H102        H  0.25176634  0.43357566  0.09571116     0.13400
H103        H  0.25256965  0.43299138  0.15190150     0.13400
H104        H  0.25565054  0.06022047  0.16132228     0.13400
C105        C  0.03780089  0.24366172  0.39069796    -0.12800
C106        C  0.50162875  0.25369447  0.40001503     0.09400
C107        C  0.46717758  0.25398248  0.38363401    -0.12800
C108        C  0.46709793  0.25427868  0.35149847    -0.12800
C109        C  0.50146840  0.25455886  0.33506094     0.09400
C110        C  0.03771496  0.24381285  0.35857033    -0.12800
H111        H  0.06475963  0.24176018  0.40260107     0.13400
H112        H  0.44022826  0.25370102  0.39563351     0.13400
H113        H  0.44009429  0.25424027  0.33954085     0.13400
H114        H  0.06456973  0.24197155  0.34654153     0.13400
C115        C  0.03417129  0.24366283  0.10848550    -0.12800
C116        C  0.50085519  0.24906477  0.08510401     0.09400
C117        C  0.46689375  0.24815276  0.10204579    -0.12800
C118        C  0.46765949  0.24778877  0.13408303    -0.12800
C119        C  0.50240616  0.24850942  0.15002285     0.09400
C120        C  0.03427120  0.24237785  0.14055781    -0.12800
H121        H  0.06083759  0.24040083  0.09639204     0.13400
H122        H  0.43957774  0.24763887  0.09056028     0.13400
H123        H  0.44090143  0.24718463  0.14635845     0.13400
H124        H  0.06106721  0.23830267  0.15232473     0.13400
C125        C  0.11369299  0.50314008  0.26093280    -0.15900
C126        C  0.13788436  0.48102778  0.24539182    -0.31000
H127        H  0.12882328  0.02528989  0.28047215     0.13200
H128        H  0.12704145  0.45805652  0.23107818     0.13700
C129        C  0.38847058  0.49010679  0.26537785    -0.15900
C130        C  0.36416749  0.51001779  0.24804974    -0.31000
H131        H  0.37795796  0.47107288  0.28317138     0.13200
H132        H  0.38047109  0.03640267  0.27659297     0.13700
C133        C  0.48822430  0.36448164  0.23875858    -0.15900
C134        C  0.51239109  0.38794892  0.25333148    -0.31000
H135        H  0.03933957  0.36929011  0.23031930     0.13200
H136        H  0.53490329  0.37633048  0.26756522     0.13700
C137        C  0.49473984  0.11285877  0.23541971    -0.15900
C138        C  0.51696920  0.13865493  0.24939295    -0.31000
H139        H  0.02742678  0.11960040  0.21973618     0.13200
H140        H  0.54039818  0.12927618  0.26377066     0.13700
C141        C  0.13232320  0.50992821  0.00872980    -0.15900
C142        C  0.10759654  0.48689115  0.99442766    -0.31000
H143        H  0.12792838  0.03261800  0.02521174     0.13200
H144        H  0.12416641  0.52369112  0.52874926     0.13700
C145        C  0.36328620  0.51714664  0.50365714    -0.15900
C146        C  0.38378908  0.01195718  0.48879468    -0.31000
H147        H  0.37357925  0.53928419  0.51901949     0.13200
H148        H  0.37549881  0.02988389  0.97352102     0.13700
C149        C  0.99684356  0.38562736  0.51267584    -0.15900
C150        C  0.01682901  0.36134093  0.49537864    -0.31000
H151        H  0.47982827  0.37777335  0.52750845     0.13200
H152        H  0.02966727  0.37595230  0.98296582     0.13700
C153        C  0.51006483  0.11529292  0.47970332    -0.15900
C154        C  0.99111367  0.13434745  0.50202780    -0.31000
H155        H  0.03253478  0.12391929  0.46824804     0.13200
H156        H  0.46371065  0.12332000  0.00813458     0.13700
O157        O  0.04576975  0.48924784  0.97340253    -0.73900
O158        O  0.44700965  0.00371438  0.96307913    -0.73900
O159        O  0.00829310  0.05014973  0.96812259    -0.73900
O160        O  0.48968198  0.44247152  0.97917337    -0.74000
O161        O  0.99532918  0.44949418  0.53083287    -0.73900
O162        O  0.50154163  0.05820366  0.50843676    -0.73900
O163        O  0.44196175  0.50475064  0.51932863    -0.73900
O164        O  0.05255363  0.99466992  0.51108114    -0.73900
Ni165      Ni  0.00102488  0.99612650  0.97216317     1.25400
Ni166      Ni  0.49891453  0.00389982  0.51298064     1.25400
C167        C  0.07227582  0.50056341  0.50710649     0.88300
C168        C  0.42547424  0.00856743  0.48779038     0.88200
C169        C  0.50799351  0.07024082  0.98369284     0.88300
C170        C  0.98876330  0.42844485  0.01067572     0.88400
O171        O  0.99248477  0.45315223  0.78325897    -0.73900
O172        O  0.49713040  0.05646968  0.75760233    -0.73900
O173        O  0.44581407  0.49709624  0.78363729    -0.73900
O174        O  0.04869700  0.01011195  0.78155590    -0.74000
O175        O  0.05207779  0.50237763  0.73049402    -0.73900
O176        O  0.44391296  0.98944981  0.71163224    -0.73900
O177        O  0.00730516  0.05157221  0.71825900    -0.73900
O178        O  0.49504123  0.44611600  0.72762498    -0.73900
Ni179      Ni  0.49998975  0.50253411  0.77904863     1.25400
Ni180      Ni  0.49751097  0.99849392  0.70715430     1.25400
C181        C  0.50184837  0.42952091  0.75327810     0.88300
C182        C  0.49091890  0.07211124  0.73148943     0.88200
C183        C  0.42367193  0.49501293  0.76030016     0.88300
C184        C  0.06639561  0.50783374  0.75722085     0.88400
O185        O  0.03065614  0.24794670  0.95563270    -0.73900
O186        O  0.03533194  0.24594985  0.54378265    -0.73900
O187        O  0.02698161  0.19360663  0.99930180    -0.73900
O188        O  0.04142680  0.29879941  0.49817363    -0.74000
O189        O  0.46954342  0.30600706  0.99376167    -0.73900
O190        O  0.46368066  0.20264074  0.49322901    -0.73900
O191        O  0.47126243  0.25667430  0.53664000    -0.73900
O192        O  0.46308531  0.25155584  0.94951088    -0.73900
Ni193      Ni  0.03325775  0.24780482  0.99945059     1.25400
Ni194      Ni  0.46874887  0.25703993  0.49287994     1.25400
C195        C  0.99900950  0.25053196  0.94127313     0.88300
C196        C  0.00383391  0.24965367  0.55830798     0.88200
C197        C  0.99397071  0.17805250  0.99988703     0.88300
C198        C  0.01192558  0.31989526  0.49796843     0.88400
O199        O  0.04025322  0.30228489  0.74936124    -0.73900
O200        O  0.02426437  0.19430883  0.75006333    -0.73900
O201        O  0.03278839  0.24778646  0.70608206    -0.73900
O202        O  0.03178644  0.24858817  0.79399028    -0.74000
O203        O  0.46238602  0.24854175  0.78560673    -0.73900
O204        O  0.46656424  0.24660497  0.69752887    -0.73900
O205        O  0.46985539  0.19328366  0.74231104    -0.73900
O206        O  0.45885939  0.30164429  0.73997922    -0.73900
Ni207      Ni  0.03451215  0.24794679  0.74994921     1.25400
Ni208      Ni  0.46215085  0.24725991  0.74134899     1.25400
C209        C  0.48856499  0.32283472  0.74049409     0.88300
C210        C  0.50317722  0.17897408  0.74419791     0.88200
C211        C  0.49874636  0.24975681  0.68395883     0.88300
C212        C  0.49335626  0.25216981  0.80096031     0.88400
O213        O  0.25333331  0.46882650  0.54320407    -0.73900
O214        O  0.23717733  0.46832452  0.95497666    -0.73900
O215        O  0.30888268  0.47690280  0.50030691    -0.73900
O216        O  0.18763958  0.47208331  0.00242872    -0.74000
O217        O  0.19587534  0.02974240  0.50929472    -0.73900
O218        O  0.30976117  0.02399345  0.00510359    -0.73900
O219        O  0.25259450  0.02815047  0.96368081    -0.73900
O220        O  0.25193069  0.02705844  0.55174936    -0.73900
Ni221      Ni  0.25533470  0.46660358  0.49914177     1.25400
Ni222      Ni  0.25593372  0.03142576  0.00762645     1.25400
C223        C  0.24934733  0.99548985  0.56636678     0.88300
C224        C  0.25003821  0.99617138  0.94963603     0.88200
C225        C  0.31647962  0.49095602  0.99452080     0.88300
C226        C  0.17912925  0.48952250  0.49713575     0.88400
O227        O  0.24515639  0.46972454  0.79353879    -0.73900
O228        O  0.25058849  0.46943833  0.70559570    -0.73900
O229        O  0.30220828  0.47515816  0.75187315    -0.73900
O230        O  0.19391715  0.46387752  0.74706670    -0.74000
O231        O  0.19336537  0.02022730  0.75687159    -0.73900
O232        O  0.30187031  0.03121275  0.75959248    -0.73900
O233        O  0.24910667  0.02619753  0.71411496    -0.73900
O234        O  0.24622119  0.02530305  0.80200157    -0.73900
Ni235      Ni  0.24822744  0.46728911  0.74959340     1.25400
Ni236      Ni  0.24742418  0.02795895  0.75816316     1.25400
C237        C  0.24277224  0.50141176  0.80795386     0.88300
C238        C  0.24634164  0.50067990  0.69082860     0.88200
C239        C  0.31689733  0.50853420  0.75027445     0.88300
C240        C  0.17305005  0.49353773  0.74763687     0.88400
C241        C  0.24863957  0.02937953  0.89869103    -0.12800
C242        C  0.23866794  0.50104653  0.90695136     0.09400
C243        C  0.23518454  0.46697010  0.89026010    -0.12800
C244        C  0.23638743  0.46716360  0.85817873    -0.12800
C245        C  0.24091836  0.50144990  0.84197099     0.09400
C246        C  0.24833064  0.02872566  0.86659800    -0.12800
H247        H  0.24850909  0.05663726  0.91026337     0.13400
H248        H  0.23202428  0.43997119  0.90198555     0.12400
H249        H  0.23387691  0.44036016  0.84607562     0.13400
H250        H  0.24804227  0.05553527  0.85435806     0.13400
C251        C  0.24920683  0.02970562  0.61690956    -0.12800
C252        C  0.24737216  0.50013050  0.59177999     0.09400
C253        C  0.25242810  0.46623976  0.60837171    -0.12800
C254        C  0.25207348  0.46639946  0.64049917    -0.12800
C255        C  0.24665178  0.50045922  0.65677463     0.09400
C256        C  0.25005104  0.02955785  0.64902450    -0.12800
H257        H  0.24728938  0.05669578  0.60504496     0.13400
H258        H  0.25681851  0.43954043  0.59654425     0.13400
H259        H  0.25614127  0.43980880  0.65257533     0.13400
H260        H  0.24874305  0.05645000  0.66108256     0.13400
C261        C  0.03271233  0.24339610  0.89102130    -0.12800
C262        C  0.49314194  0.25018994  0.90001511     0.09400
C263        C  0.45859726  0.24980340  0.88370995    -0.12800
C264        C  0.45841544  0.25056200  0.85149370    -0.12800
C265        C  0.49276949  0.25195544  0.83501730     0.09400
C266        C  0.03312131  0.24412623  0.85894738    -0.12800
H267        H  0.05878267  0.23676719  0.90307394     0.13400
H268        H  0.43173999  0.24873790  0.89581985     0.13400
H269        H  0.43142820  0.25004448  0.83951739     0.13400
H270        H  0.05945348  0.23799753  0.84713216     0.13400
C271        C  0.03714602  0.24571880  0.60920821    -0.12800
C272        C  0.50212492  0.25190513  0.58511892     0.09400
C273        C  0.46744673  0.25493522  0.60092839    -0.12800
C274        C  0.46643765  0.25396215  0.63295289    -0.12800
C275        C  0.50009783  0.25014857  0.64999264     0.09400
C276        C  0.03651014  0.24620708  0.64132578    -0.12800
H277        H  0.06402676  0.24159261  0.59761624     0.13400
H278        H  0.44091754  0.25798816  0.58856318     0.13400
H279        H  0.43923103  0.25649328  0.64436571     0.13400
H280        H  0.06298142  0.24247421  0.65363902     0.13400
C281        C  0.10778013  0.51177797  0.76060656    -0.15900
C282        C  0.13159449  0.48898237  0.74535609    -0.31000
H283        H  0.12307932  0.02944108  0.77961644     0.13200
H284        H  0.12036724  0.46568071  0.73159353     0.13700
C285        C  0.38237702  0.49151406  0.76485446    -0.15900
C286        C  0.35840996  0.51313877  0.74857154    -0.31000
H287        H  0.37158583  0.47170337  0.78196743     0.13200
H288        H  0.37696488  0.02795773  0.77323160     0.13700
C289        C  0.48404851  0.36436009  0.73864158    -0.15900
C290        C  0.50684079  0.38805433  0.75434680    -0.31000
H291        H  0.03849070  0.37683519  0.73217198     0.13200
H292        H  0.52806924  0.37663011  0.76991577     0.13700
C293        C  0.48592780  0.11356840  0.72958930    -0.15900
C294        C  0.50770069  0.13746275  0.74606904    -0.31000
H295        H  0.02515702  0.12586072  0.71933470     0.13200
H296        H  0.53065596  0.12633950  0.76010021     0.13700
C297        C  0.13793620  0.48333889  0.49487163    -0.15900
C298        C  0.11355648  0.50395627  0.51149069    -0.31000
H299        H  0.12144528  0.02067046  0.52520762     0.13200
H300        H  0.11777948  0.46547566  0.97849331     0.13700
C301        C  0.35777709  0.48677429  0.99153516    -0.15900
C302        C  0.38814387  0.00926428  0.98902038    -0.31000
H303        H  0.36870777  0.46398616  0.97727103     0.13200
H304        H  0.37008176  0.03102105  0.47260953     0.13700
C305        C  0.98637982  0.38706409  0.01501913    -0.15900
C306        C  0.00819429  0.36393925  0.99814312    -0.31000
H307        H  0.47009087  0.37454162  0.02809312     0.13200
H308        H  0.03784836  0.37212818  0.47923547     0.13700
C309        C  0.51168322  0.11183728  0.98093821    -0.15900
C310        C  0.99036828  0.13644478  0.00149868    -0.31000
H311        H  0.03694442  0.12427061  0.97257409     0.13200
H312        H  0.46262591  0.12839811  0.50705212     0.13700
O313        O  0.05396547  0.98973078  0.45999456    -0.73900
O314        O  0.45164926  0.49755689  0.46898732    -0.73900
O315        O  0.00627038  0.54772790  0.46743832    -0.73900
O316        O  0.48774619  0.94638349  0.46295616    -0.74000
O317        O  0.99663917  0.95103514  0.03059605    -0.73900
O318        O  0.50244949  0.55709638  0.02067383    -0.73900
O319        O  0.44766870  0.00277441  0.01436366    -0.73900
O320        O  0.05190661  0.49896759  0.02387189    -0.73900
Ni321      Ni  0.00545350  0.49340620  0.47230164     1.25400
Ni322      Ni  0.49770415  0.50339725  0.02723187     1.25400
C323        C  0.07415913  0.99147773  0.99751675     0.88300
C324        C  0.42302729  0.50514427  0.00468287     0.88200
C325        C  0.50013142  0.57526794  0.49490953     0.88300
C326        C  0.99121063  0.92624283  0.48359044     0.88400
O327        O  0.00476709  0.94660518  0.28198658    -0.73900
O328        O  0.50100690  0.55603660  0.27813539    -0.73900
O329        O  0.45138556  0.00178944  0.27720386    -0.73900
O330        O  0.05076795  0.50273156  0.28050739    -0.74000
O331        O  0.06512627  0.99274454  0.23191709    -0.73900
O332        O  0.44289397  0.49609446  0.23362276    -0.73900
O333        O  0.00162249  0.54456181  0.21776942    -0.73900
O334        O  0.51269201  0.94244753  0.23594352    -0.73900
Ni335      Ni  0.50562819  0.00800311  0.27977898     1.25400
Ni336      Ni  0.49609503  0.50096805  0.22567879     1.25400
C337        C  0.51355574  0.93086654  0.26381631     0.88300
C338        C  0.49458346  0.57329312  0.25271245     0.88200
C339        C  0.43483508  0.99323587  0.25185052     0.88300
C340        C  0.07783033  0.00027275  0.25886305     0.88400
O341        O  0.02827949  0.74657426  0.45574029    -0.73900
O342        O  0.03132117  0.74755700  0.04259587    -0.73900
O343        O  0.02167335  0.69123933  0.49865868    -0.73900
O344        O  0.03492215  0.80103549  0.99727569    -0.74000
O345        O  0.46798577  0.81060981  0.50901343    -0.73900
O346        O  0.48539299  0.69416912  0.00882839    -0.73900
O347        O  0.48396356  0.74695610  0.05443525    -0.73900
O348        O  0.46321937  0.75561893  0.46581089    -0.73900
Ni349      Ni  0.03015852  0.74520045  0.49969271     1.25400
Ni350      Ni  0.48125362  0.74871265  0.01057099     1.25400
C351        C  0.99685099  0.74888477  0.44097947     0.88300
C352        C  0.00053042  0.75061068  0.05811989     0.88200
C353        C  0.98812956  0.67689812  0.49997258     0.88300
C354        C  0.00543099  0.82214567  0.99802024     0.88400
O355        O  0.02783562  0.80341019  0.24892011    -0.73900
O356        O  0.03808498  0.69519738  0.25196687    -0.73900
O357        O  0.03404006  0.74776829  0.20598134    -0.73900
O358        O  0.03156298  0.75091354  0.29404690    -0.74000
O359        O  0.47144118  0.75166731  0.30301206    -0.73900
O360        O  0.47812737  0.74598364  0.21533914    -0.73900
O361        O  0.47895926  0.69466707  0.26158047    -0.73900
O362        O  0.47051261  0.80289444  0.25614106    -0.73900
Ni363      Ni  0.03514195  0.74951775  0.25019022     1.25400
Ni364      Ni  0.47252947  0.74861560  0.25897497     1.25400
C365        C  0.50058644  0.82351068  0.25700409     0.88300
C366        C  0.51186678  0.67960510  0.26412528     0.88200
C367        C  0.51062742  0.74825350  0.20218404     0.88300
C368        C  0.50194733  0.75479640  0.31897377     0.88400
O369        O  0.25060132  0.96718424  0.05266127    -0.73900
O370        O  0.24767794  0.96340336  0.46394637    -0.73900
O371        O  0.30353909  0.96091252  0.00835977    -0.73900
O372        O  0.19210152  0.96644245  0.50685465    -0.74000
O373        O  0.19458052  0.53519428  0.00411193    -0.73900
O374        O  0.29998303  0.53969165  0.50095361    -0.73900
O375        O  0.24771299  0.53150666  0.45509705    -0.73900
O376        O  0.25260199  0.52790252  0.04383644    -0.73900
Ni377      Ni  0.24916526  0.96381756  0.00876215     1.25400
Ni378      Ni  0.24581022  0.53381838  0.49923638     1.25400
C379        C  0.25046046  0.49586585  0.05776705     0.88300
C380        C  0.25226698  0.50005181  0.44065312     0.88200
C381        C  0.32075993  0.99194385  0.50734110     0.88300
C382        C  0.18068643  0.00456311  0.01037148     0.88400
O383        O  0.25677136  0.96414827  0.30150984    -0.73900
O384        O  0.26408447  0.96674173  0.21368524    -0.73900
O385        O  0.31431070  0.97230015  0.26055605    -0.73900
O386        O  0.20665328  0.95835781  0.25392833    -0.74000
O387        O  0.19325671  0.52002679  0.24905568    -0.73900
O388        O  0.30133161  0.53361459  0.24824075    -0.73900
O389        O  0.24726491  0.52588141  0.20487220    -0.73900
O390        O  0.24753952  0.52782258  0.29268808    -0.73900
Ni391      Ni  0.26074802  0.96314388  0.25746537     1.25400
Ni392      Ni  0.24705591  0.52905893  0.24873685     1.25400
C393        C  0.25207191  0.99525263  0.31639012     0.88300
C394        C  0.26087059  0.99852443  0.19954375     0.88200
C395        C  0.32818126  0.00600518  0.26228428     0.88300
C396        C  0.18514606  0.98754309  0.25338505     0.88400
C397        C  0.24749072  0.53308179  0.38966901    -0.12800
C398        C  0.24851389  0.99483174  0.41529850     0.09400
C399        C  0.25277440  0.96062878  0.39896025    -0.12800
C400        C  0.25371932  0.96063403  0.36683427    -0.12800
C401        C  0.25028967  0.99482608  0.35037870     0.09400
C402        C  0.24667786  0.53213911  0.35755628    -0.12800
H403        H  0.24446086  0.56017963  0.40119415     0.13400
H404        H  0.25569855  0.93384830  0.41099276     0.12400
H405        H  0.25731807  0.93387519  0.35491232     0.13400
H406        H  0.24316004  0.55858709  0.34516025     0.13400
C407        C  0.25335491  0.52925362  0.10840792    -0.12800
C408        C  0.25822629  0.99917288  0.10062045     0.09400
C409        C  0.26242410  0.96494765  0.11689219    -0.12800
C410        C  0.26415511  0.96490582  0.14894037    -0.12800
C411        C  0.26147119  0.99907574  0.16551517     0.09400
C412        C  0.25358660  0.52891350  0.14045433    -0.12800
H413        H  0.25338854  0.55643455  0.09670675     0.13400
H414        H  0.26430841  0.93807661  0.10485488     0.13400
H415        H  0.26704900  0.93795944  0.16073429     0.13400
H416        H  0.25398021  0.55583346  0.15253540     0.13400
C417        C  0.03208683  0.74948250  0.39100080    -0.12800
C418        C  0.49652517  0.75467546  0.41779353     0.09400
C419        C  0.46296092  0.75535364  0.40026766    -0.12800
C420        C  0.46460219  0.75566460  0.36813979    -0.12800
C421        C  0.49983898  0.75545724  0.35292833     0.09400
C422        C  0.03275291  0.74953767  0.35891767    -0.12800
H423        H  0.05885514  0.74954743  0.40330057     0.13400
H424        H  0.43542247  0.75546307  0.41135497     0.13400
H425        H  0.43827946  0.75597267  0.35523346     0.13400
H426        H  0.06000907  0.74951413  0.34737714     0.13400
C427        C  0.03639346  0.74856150  0.10810537    -0.12800
C428        C  0.51494682  0.74686996  0.10315200     0.09400
C429        C  0.48004290  0.74522603  0.11879104    -0.12800
C430        C  0.47884685  0.74534648  0.15082591    -0.12800
C431        C  0.51252083  0.74714421  0.16815629     0.09400
C432        C  0.03695694  0.74673962  0.14025298    -0.12800
H433        H  0.06312478  0.74952326  0.09580835     0.13400
H434        H  0.45344326  0.74407887  0.10627772     0.13400
H435        H  0.45137159  0.74432550  0.16200213     0.13400
H436        H  0.06409888  0.74647495  0.15199543     0.13400
C437        C  0.11895227  0.00434718  0.26389368    -0.15900
C438        C  0.14398621  0.98207578  0.24945713    -0.31000
H439        H  0.12449894  0.52370561  0.27747055     0.13200
H440        H  0.13404012  0.95875531  0.23512839     0.13700
C441        C  0.39352202  0.98744900  0.25092816    -0.15900
C442        C  0.36955679  0.01136243  0.26482406    -0.31000
H443        H  0.38242980  0.96468255  0.23654502     0.13200
H444        H  0.37496027  0.53162739  0.23238812     0.13700
C445        C  0.49690617  0.86479628  0.25310252    -0.15900
C446        C  0.51696660  0.88987611  0.26983350    -0.31000
H447        H  0.97168201  0.87059661  0.22754379     0.13200
H448        H  0.53496159  0.88024920  0.28854998     0.13700
C449        C  0.49041217  0.61482337  0.25214952    -0.15900
C450        C  0.51519431  0.63796694  0.26639912    -0.31000
H451        H  0.98183263  0.61875746  0.21510717     0.13200
H452        H  0.53953249  0.62611992  0.27835100     0.13700
C453        C  0.13920633  0.00891343  0.01212735    -0.15900
C454        C  0.11553897  0.98618767  0.99631507    -0.31000
H455        H  0.12208160  0.53381281  0.02214623     0.13200
H456        H  0.12615369  0.96969627  0.46822388     0.13700
C457        C  0.36256799  0.98972641  0.50718805    -0.15900
C458        C  0.38794604  0.49662810  0.48717831    -0.31000
H459        H  0.37606753  0.96780677  0.52093581     0.13200
H460        H  0.37068301  0.52920531  0.02410699     0.13700
C461        C  0.98659706  0.88474048  0.48312816    -0.15900
C462        C  0.00920469  0.86219184  0.49982414    -0.31000
H463        H  0.46537206  0.87511822  0.47488906     0.13200
H464        H  0.03285937  0.87430529  0.98062873     0.13700
C465        C  0.50182397  0.61697701  0.49185077    -0.15900
C466        C  0.98315769  0.63547183  0.50196252    -0.31000
H467        H  0.02407671  0.62242516  0.46830529     0.13200
H468        H  0.53912163  0.62296066  0.02601778     0.13700
O469        O  0.05498324  0.98921129  0.97258838    -0.73900
O470        O  0.43781027  0.49900587  0.97827824    -0.73900
O471        O  0.99769008  0.54900816  0.97050443    -0.73900
O472        O  0.49282601  0.94215603  0.96618686    -0.74000
O473        O  0.99473214  0.94354446  0.50934117    -0.73900
O474        O  0.49476903  0.56054961  0.52147667    -0.73900
O475        O  0.44437713  0.00614754  0.51288811    -0.73900
O476        O  0.05027230  0.50499480  0.53021942    -0.73900
Ni477      Ni  0.99186806  0.49494862  0.97519618     1.25400
Ni478      Ni  0.49529808  0.50673077  0.52773833     1.25400
C479        C  0.07107062  0.99020262  0.48599357     0.88300
C480        C  0.42917904  0.50017880  0.49202219     0.88200
C481        C  0.49898453  0.57185121  0.99390894     0.88300
C482        C  0.99360434  0.92935675  0.00705545     0.88400
O483        O  0.99576549  0.95352514  0.78156855    -0.73900
O484        O  0.49502007  0.55687135  0.77615313    -0.73900
O485        O  0.44639421  0.99832923  0.76236315    -0.73900
O486        O  0.04533272  0.51044515  0.78107576    -0.74000
O487        O  0.05876906  0.99720984  0.73203111    -0.73900
O488        O  0.43674770  0.49581817  0.73287067    -0.73900
O489        O  0.99367352  0.55108407  0.71915380    -0.73900
O490        O  0.50653694  0.94497470  0.71110280    -0.73900
Ni491      Ni  0.50080909  0.00228710  0.76184552     1.25400
Ni492      Ni  0.48994385  0.50045055  0.72470530     1.25400
C493        C  0.50727085  0.92868355  0.73739972     0.88300
C494        C  0.48842827  0.57353339  0.75049687     0.88200
C495        C  0.42741319  0.99170821  0.73778475     0.88300
C496        C  0.07138108  0.00429508  0.75909353     0.88400
O497        O  0.02659879  0.74619375  0.95471287    -0.73900
O498        O  0.02763670  0.74444384  0.54365903    -0.73900
O499        O  0.02296773  0.69262110  0.99934561    -0.73900
O500        O  0.03403020  0.79961552  0.50079963    -0.74000
O501        O  0.48189346  0.80347231  0.01183472    -0.73900
O502        O  0.45668142  0.70214553  0.51074920    -0.73900
O503        O  0.46170386  0.75704238  0.55410451    -0.73900
O504        O  0.48263114  0.75065089  0.96693334    -0.73900
Ni505      Ni  0.03119407  0.74661699  0.99845222     1.25400
Ni506      Ni  0.46011226  0.75658594  0.50989931     1.25400
C507        C  0.99449543  0.74966356  0.94113382     0.88300
C508        C  0.99624317  0.74883787  0.55808915     0.88200
C509        C  0.98951641  0.67824992  0.00149264     0.88300
C510        C  0.00451156  0.82064130  0.49947551     0.88400
O511        O  0.02000504  0.81002388  0.74866611    -0.73900
O512        O  0.03099711  0.70186293  0.75228967    -0.73900
O513        O  0.02649357  0.75391974  0.70610543    -0.73900
O514        O  0.02434112  0.75774094  0.79400362    -0.74000
O515        O  0.47183666  0.75002855  0.80600961    -0.73900
O516        O  0.46525226  0.74955299  0.71785565    -0.73900
O517        O  0.47218561  0.69533915  0.76191953    -0.73900
O518        O  0.46450099  0.80403253  0.76216409    -0.73900
Ni519      Ni  0.02769329  0.75615551  0.75022543     1.25400
Ni520      Ni  0.46615031  0.74954467  0.76208391     1.25400
C521        C  0.49462735  0.82425503  0.75906218     0.88300
C522        C  0.50512320  0.68001211  0.76235692     0.88200
C523        C  0.49601570  0.75052099  0.70205821     0.88300
C524        C  0.50435429  0.75412060  0.81903848     0.88400
O525        O  0.24598002  0.96392155  0.55188119    -0.73900
O526        O  0.24846124  0.96490235  0.96472515    -0.73900
O527        O  0.30118835  0.96115412  0.50888441    -0.73900
O528        O  0.19517765  0.97125570  0.00922342    -0.74000
O529        O  0.19230671  0.52354527  0.49802582    -0.73900
O530        O  0.30224480  0.52426074  0.99672967    -0.73900
O531        O  0.24420829  0.53133474  0.95612179    -0.73900
O532        O  0.24441239  0.53151125  0.54315996    -0.73900
Ni533      Ni  0.24656980  0.96145292  0.50790895     1.25400
Ni534      Ni  0.24863430  0.53191891  0.00016465     1.25400
C535        C  0.24836201  0.50012488  0.55773952     0.88300
C536        C  0.23978920  0.50030081  0.94100162     0.88200
C537        C  0.32439325  0.99076356  0.00639576     0.88300
C538        C  0.17613835  0.99908459  0.50807150     0.88400
O539        O  0.25223387  0.96226488  0.80180159    -0.73900
O540        O  0.25489572  0.96312795  0.71367214    -0.73900
O541        O  0.30784313  0.96808095  0.75841988    -0.73900
O542        O  0.19933617  0.95710608  0.75597451    -0.74000
O543        O  0.18766782  0.52692984  0.74940680    -0.73900
O544        O  0.29604446  0.53816800  0.74878136    -0.73900
O545        O  0.24169233  0.53212097  0.70520137    -0.73900
O546        O  0.24186083  0.53298883  0.79325920    -0.73900
Ni547      Ni  0.25379128  0.96038204  0.75758565     1.25400
Ni548      Ni  0.24163128  0.53481561  0.74920474     1.25400
C549        C  0.24898180  0.99373480  0.81647673     0.88300
C550        C  0.25224555  0.99483434  0.69934025     0.88200
C551        C  0.32263519  0.00146499  0.75905364     0.88300
C552        C  0.17856782  0.98686302  0.75547366     0.88400
C553        C  0.24264487  0.53543179  0.89074860    -0.12800
C554        C  0.24917496  0.99534052  0.91557814     0.09400
C555        C  0.24933980  0.96058232  0.89957425    -0.12800
C556        C  0.24919393  0.95992890  0.86741024    -0.12800
C557        C  0.24870006  0.99401521  0.85055353     0.09400
C558        C  0.24366766  0.53563941  0.85860014    -0.12800
H559        H  0.24543440  0.56217211  0.90290131     0.13400
H560        H  0.24982890  0.93383212  0.91189224     0.12400
H561        H  0.24949765  0.93272460  0.85576467     0.13400
H562        H  0.24710977  0.56254981  0.84679227     0.13400
C563        C  0.24170379  0.53414947  0.60805854    -0.12800
C564        C  0.25045461  0.99541380  0.60037706     0.09400
C565        C  0.25295838  0.96100173  0.61666351    -0.12800
C566        C  0.25398720  0.96086263  0.64875699    -0.12800
C567        C  0.25234212  0.99512705  0.66531353     0.09400
C568        C  0.24135151  0.53430928  0.64017212    -0.12800
H569        H  0.23764026  0.56075497  0.59599908     0.13400
H570        H  0.25419612  0.93409841  0.60461320     0.13400
H571        H  0.25580143  0.93383941  0.66058691     0.13400
H572        H  0.23696831  0.56102347  0.65198175     0.13400
C573        C  0.02753526  0.75268585  0.89039628    -0.12800
C574        C  0.51197262  0.75374584  0.91792253     0.09400
C575        C  0.47653701  0.75096740  0.90302359    -0.12800
C576        C  0.47410489  0.75137987  0.87102434    -0.12800
C577        C  0.50703110  0.75466917  0.85302877     0.09400
C578        C  0.02706500  0.75440233  0.85838674    -0.12800
H579        H  0.05475001  0.75302686  0.90204009     0.13400
H580        H  0.45048892  0.74817559  0.91609054     0.13400
H581        H  0.44635531  0.74890083  0.86039938     0.13400
H582        H  0.05394279  0.75571366  0.84631340     0.13400
C583        C  0.03042997  0.75050525  0.60868720    -0.12800
C584        C  0.49304070  0.75200299  0.60296465     0.09400
C585        C  0.45897337  0.75190157  0.61986731    -0.12800
C586        C  0.45970362  0.75108137  0.65208164    -0.12800
C587        C  0.49452298  0.75050750  0.66798964     0.09400
C588        C  0.03024557  0.75081344  0.64082631    -0.12800
H589        H  0.05744950  0.75187150  0.59682704     0.13400
H590        H  0.43177171  0.75234680  0.60821910     0.13400
H591        H  0.43304994  0.75108884  0.66450230     0.13400
H592        H  0.05711845  0.75234838  0.65292498     0.13400
C593        C  0.11264371  0.00713424  0.76446228    -0.15900
C594        C  0.13707658  0.98244597  0.75198730    -0.31000
H595        H  0.11885361  0.53270315  0.77672332     0.13200
H596        H  0.12632634  0.95813352  0.73915163     0.13700
C597        C  0.38594558  0.98611120  0.73940504    -0.15900
C598        C  0.36424860  0.00595642  0.75893326    -0.31000
H599        H  0.37262324  0.96706272  0.72286813     0.13200
H600        H  0.36965356  0.53533942  0.73367169     0.13700
C601        C  0.49124064  0.86590410  0.75834584    -0.15900
C602        C  0.51181479  0.88718488  0.73884514    -0.31000
H603        H  0.96477808  0.87664234  0.72587671     0.13200
H604        H  0.53037764  0.87360285  0.72225234     0.13700
C605        C  0.48424145  0.61512461  0.74944488    -0.15900
C606        C  0.50849345  0.63834008  0.76420677    -0.31000
H607        H  0.97153912  0.62495352  0.71751567     0.13200
H608        H  0.53258050  0.62650045  0.77649893     0.13700
C609        C  0.13438078  0.00186979  0.50845266    -0.15900
C610        C  0.11272637  0.98526174  0.48681327    -0.31000
H611        H  0.12745901  0.46115082  0.47962614     0.13200
H612        H  0.12688278  0.96501301  0.98068395     0.13700
C613        C  0.36592865  0.98662902  0.00616880    -0.15900
C614        C  0.38169946  0.50901990  0.00750556    -0.31000
H615        H  0.37842016  0.96347480  0.01922073     0.13200
H616        H  0.37764151  0.47696303  0.46976907     0.13700
C617        C  0.98892372  0.88809907  0.01134431    -0.15900
C618        C  0.01031731  0.86359692  0.99541928    -0.31000
H619        H  0.47273111  0.87014096  0.97811764     0.13200
H620        H  0.03260065  0.87442222  0.51291771     0.13700
C621        C  0.49930867  0.61364844  0.99064356    -0.15900
C622        C  0.98467873  0.63686024  0.00458137    -0.31000
H623        H  0.02571634  0.62234049  0.97138179     0.13200
H624        H  0.46131467  0.62760517  0.52639835     0.13700
O625        O  0.55928509  0.50176732  0.48219144    -0.73900
O626        O  0.94624538  0.00671091  0.45722508    -0.73900
O627        O  0.50442371  0.05399063  0.45732648    -0.73900
O628        O  0.00462553  0.43999911  0.48070562    -0.74000
O629        O  0.49232276  0.44894999  0.03014377    -0.73900
O630        O  0.01055020  0.05823613  0.01898370    -0.73900
O631        O  0.94408589  0.51010934  0.03122088    -0.73900
O632        O  0.55660024  0.99859870  0.01304056    -0.73900
Ni633      Ni  0.49597436  0.00004218  0.45829293     1.25400
Ni634      Ni  0.00405309  0.00507079  0.02660096     1.25400
C635        C  0.56643726  0.49439085  0.99537385     0.88300
C636        C  0.93098243  0.01028958  0.00140292     0.88200
C637        C  0.00724922  0.07002157  0.48450748     0.88300
C638        C  0.50082750  0.43116040  0.50664897     0.88400
O639        O  0.51079624  0.44755535  0.27828989    -0.73900
O640        O  0.99885151  0.05419025  0.26835285    -0.73900
O641        O  0.94277159  0.49956917  0.26971199    -0.73900
O642        O  0.55967686  0.01381644  0.27864811    -0.74000
O643        O  0.55022254  0.50645588  0.22132900    -0.73900
O644        O  0.95740898  0.98887158  0.21852579    -0.73900
O645        O  0.50163777  0.04869562  0.21924814    -0.73900
O646        O  0.00683312  0.43716243  0.23208931    -0.73900
Ni647      Ni  0.99645286  0.50117526  0.27694906     1.25400
Ni648      Ni  0.01163346  0.99076567  0.22333533     1.25400
C649        C  0.00132579  0.42436943  0.25928575     0.88300
C650        C  0.00528808  0.06729849  0.24137650     0.88200
C651        C  0.92894195  0.49217910  0.24312597     0.88300
C652        C  0.57227391  0.50789661  0.24473457     0.88400
O653        O  0.53337682  0.24887903  0.44837231    -0.73900
O654        O  0.53052940  0.24718512  0.03562843    -0.73900
O655        O  0.52653581  0.19464480  0.49223298    -0.73900
O656        O  0.53267108  0.30126952  0.99092966    -0.74000
O657        O  0.97839252  0.30549857  0.49894510    -0.73900
O658        O  0.96373714  0.19810462  0.00016074    -0.73900
O659        O  0.96815093  0.25209124  0.04399326    -0.73900
O660        O  0.97223302  0.24988460  0.45585924    -0.73900
Ni661      Ni  0.53603989  0.24845097  0.49231743     1.25400
Ni662      Ni  0.96554737  0.25260161  0.00012128     1.25400
C663        C  0.50184714  0.25305997  0.43403909     0.88300
C664        C  0.49962273  0.24931252  0.05110857     0.88200
C665        C  0.49272848  0.18089387  0.49298629     0.88300
C666        C  0.50256908  0.32146114  0.99218890     0.88400
O667        O  0.52692859  0.30935293  0.24102362    -0.73900
O668        O  0.54055896  0.20163468  0.24505099    -0.73900
O669        O  0.53412054  0.25327889  0.19864987    -0.73900
O670        O  0.53314135  0.25765407  0.28664354    -0.74000
O671        O  0.97139916  0.25057932  0.29408251    -0.73900
O672        O  0.96958032  0.24977266  0.20615921    -0.73900
O673        O  0.96264178  0.19613147  0.25107033    -0.73900
O674        O  0.97837748  0.30411461  0.24992772    -0.73900
Ni675      Ni  0.53592113  0.25577643  0.24276203     1.25400
Ni676      Ni  0.96825577  0.25045073  0.25027354     1.25400
C677        C  0.01233208  0.31742813  0.24869423     0.88300
C678        C  0.99151811  0.17418062  0.25069078     0.88200
C679        C  0.00065216  0.24557512  0.19117807     0.88300
C680        C  0.00302283  0.24641973  0.30822478     0.88400
O681        O  0.74439031  0.46816800  0.04629721    -0.73900
O682        O  0.75566994  0.47218577  0.45822722    -0.73900
O683        O  0.79530538  0.46348924  0.99926311    -0.73900
O684        O  0.70049822  0.46465979  0.50070016    -0.74000
O685        O  0.70031152  0.03881978  0.00071220    -0.73900
O686        O  0.80590133  0.02694967  0.49491651    -0.73900
O687        O  0.75019503  0.03061791  0.45207144    -0.73900
O688        O  0.75801956  0.03298934  0.04138003    -0.73900
Ni689      Ni  0.74108075  0.46670112  0.00221310     1.25400
Ni690      Ni  0.75183977  0.03468251  0.49594222     1.25400
C691        C  0.75642966  0.00089344  0.05523650     0.88300
C692        C  0.74802609  0.99846409  0.43829035     0.88200
C693        C  0.82283607  0.51102170  0.50370859     0.88300
C694        C  0.67304024  0.50775230  0.00617720     0.88400
O695        O  0.75627486  0.47190109  0.29693444    -0.73900
O696        O  0.75161437  0.46940559  0.20905582    -0.73900
O697        O  0.80801114  0.47617634  0.25099754    -0.73900
O698        O  0.69984615  0.46507974  0.25530145    -0.74000
O699        O  0.69975079  0.02470118  0.24433146    -0.73900
O700        O  0.80786318  0.03335431  0.25039915    -0.73900
O701        O  0.75726229  0.02965427  0.20313496    -0.73900
O702        O  0.75029557  0.02811780  0.29086934    -0.73900
Ni703      Ni  0.75414603  0.46838229  0.25305354     1.25400
Ni704      Ni  0.75365877  0.03117771  0.24712520     1.25400
C705        C  0.75234200  0.50356813  0.31112440     0.88300
C706        C  0.74959345  0.50071385  0.19408091     0.88200
C707        C  0.82276666  0.50955459  0.25187335     0.88300
C708        C  0.67901465  0.49473860  0.25417365     0.88400
C709        C  0.74637240  0.03144481  0.38737483    -0.12800
C710        C  0.75313733  0.50433524  0.41007861     0.09400
C711        C  0.75840128  0.47032990  0.39371413    -0.12800
C712        C  0.75838090  0.47021486  0.36165462    -0.12800
C713        C  0.75306971  0.50409403  0.34513806     0.09400
C714        C  0.74714707  0.03090507  0.35531793    -0.12800
H715        H  0.74457768  0.05863668  0.39894055     0.13400
H716        H  0.76240127  0.44364169  0.40566824     0.12400
H717        H  0.76235444  0.44345127  0.34981970     0.13400
H718        H  0.74601835  0.05772503  0.34313056     0.13400
C719        C  0.75761051  0.03408001  0.10612905    -0.12800
C720        C  0.74900316  0.49946295  0.09508919     0.09400
C721        C  0.74870580  0.46518325  0.11170668    -0.12800
C722        C  0.74887206  0.46550289  0.14386303    -0.12800
C723        C  0.74916159  0.50011428  0.16005355     0.09400
C724        C  0.75863970  0.03352258  0.13820870    -0.12800
H725        H  0.75550066  0.06126321  0.09457861     0.13400
H726        H  0.74838441  0.43809268  0.09988015     0.13400
H727        H  0.74871564  0.43863440  0.15602333     0.13400
H728        H  0.75727476  0.06026670  0.15047695     0.13400
C729        C  0.53597491  0.25411725  0.38355687    -0.12800
C730        C  0.00354145  0.24606871  0.40719469     0.09400
C731        C  0.96921337  0.24860359  0.39084393    -0.12800
C732        C  0.96913004  0.24878545  0.35875298    -0.12800
C733        C  0.00336999  0.24639946  0.34224268     0.09400
C734        C  0.53589624  0.25466974  0.35146608    -0.12800
H735        H  0.56301124  0.25406833  0.39546721     0.13400
H736        H  0.94233277  0.25049457  0.40282999     0.13400
H737        H  0.94214658  0.25073053  0.34688771     0.13400
H738        H  0.56287981  0.25481671  0.33951348     0.13400
C739        C  0.53567639  0.24964674  0.10098059    -0.12800
C740        C  0.00006562  0.24891000  0.09228727     0.09400
C741        C  0.96605707  0.25294291  0.10888801    -0.12800
C742        C  0.96616631  0.25172764  0.14098504    -0.12800
C743        C  0.00027735  0.24638095  0.15717553     0.09400
C744        C  0.53644164  0.24948211  0.13313940    -0.12800
H745        H  0.56233610  0.25038821  0.08857507     0.13400
H746        H  0.93928777  0.25707313  0.09709216     0.13400
H747        H  0.93951901  0.25502764  0.15309760     0.13400
H748        H  0.56366584  0.25009611  0.14475845     0.13400
C749        C  0.61351264  0.51147536  0.24020310    -0.15900
C750        C  0.63761255  0.49027616  0.25668930    -0.31000
H751        H  0.63207676  0.03565532  0.26907742     0.13200
H752        H  0.62661082  0.46840184  0.27201395     0.13700
C753        C  0.88756601  0.48932375  0.23931390    -0.15900
C754        C  0.86428302  0.51396229  0.25316081    -0.31000
H755        H  0.87608740  0.46715179  0.22453325     0.13200
H756        H  0.87992033  0.02759720  0.27120688     0.13700
C757        C  0.01841951  0.35869672  0.24662529    -0.15900
C758        C  0.99899106  0.38303223  0.26423919    -0.31000
H759        H  0.46341679  0.37582410  0.22711965     0.13200
H760        H  0.98051692  0.37232637  0.28233025     0.13700
C761        C  0.00734892  0.10867188  0.23658622    -0.15900
C762        C  0.98568626  0.13280282  0.25261943    -0.31000
H763        H  0.47356334  0.12174492  0.21875585     0.13200
H764        H  0.96331882  0.12196490  0.26750663     0.13700
C765        C  0.63171180  0.51210510  0.00883547    -0.15900
C766        C  0.60775873  0.49022528  0.99259086    -0.31000
H767        H  0.62622759  0.03527274  0.01528818     0.13200
H768        H  0.62373198  0.52983707  0.53155780     0.13700
C769        C  0.86427529  0.51591284  0.50505912    -0.15900
C770        C  0.88552691  0.01049784  0.48101483    -0.31000
H771        H  0.87583633  0.53707779  0.52072707     0.13200
H772        H  0.87931877  0.03856457  0.01834245     0.13700
C773        C  0.49832685  0.38948677  0.50982418    -0.15900
C774        C  0.51788855  0.36602858  0.49148806    -0.31000
H775        H  0.97837747  0.37486087  0.53074479     0.13200
H776        H  0.52610965  0.37507164  0.97406157     0.13700
C777        C  0.01243604  0.11157547  0.48444584    -0.15900
C778        C  0.48698197  0.13938804  0.49442159    -0.31000
H779        H  0.53216996  0.12623849  0.46460711     0.13200
H780        H  0.96639579  0.12458683  0.01410612     0.13700
O781        O  0.54603407  0.49338584  0.97103586    -0.73900
O782        O  0.94694829  0.00321209  0.97554762    -0.73900
O783        O  0.50872959  0.04985473  0.95934058    -0.73900
O784        O  0.98729727  0.44176988  0.98334609    -0.74000
O785        O  0.49590990  0.45212775  0.53037243    -0.73900
O786        O  0.00160049  0.05241156  0.50990198    -0.73900
O787        O  0.94260327  0.50287672  0.51834754    -0.73900
O788        O  0.55326619  0.00125292  0.50934466    -0.73900
Ni789      Ni  0.50079135  0.99582186  0.96091434     1.25400
Ni790      Ni  0.99805045  0.99792323  0.51151451     1.25400
C791        C  0.57207226  0.50640723  0.50949460     0.88300
C792        C  0.92713935  0.00568836  0.48226002     0.88200
C793        C  0.01124641  0.07177329  0.99169160     0.88300
C794        C  0.48992528  0.42793433  0.00614983     0.88400
O795        O  0.50501369  0.44841178  0.77825821    -0.73900
O796        O  0.99436315  0.06118600  0.76783958    -0.73900
O797        O  0.93718390  0.50440681  0.77188987    -0.73900
O798        O  0.55497428  0.00590268  0.75766578    -0.74000
O799        O  0.54402689  0.50584649  0.72006990    -0.73900
O800        O  0.95101361  0.99746702  0.71763614    -0.73900
O801        O  0.48867483  0.05228268  0.70688798    -0.73900
O802        O  0.00228120  0.44386055  0.73316491    -0.73900
Ni803      Ni  0.99101109  0.50746703  0.77831771     1.25400
Ni804      Ni  0.00527227  0.99726310  0.72296658     1.25400
C805        C  0.99776260  0.43084791  0.76040487     0.88300
C806        C  0.00160964  0.07403262  0.74092807     0.88200
C807        C  0.92299549  0.49655585  0.74550690     0.88300
C808        C  0.56617639  0.50788915  0.74337713     0.88400
O809        O  0.52616478  0.24673277  0.94774187    -0.73900
O810        O  0.53404493  0.24867229  0.53650262    -0.73900
O811        O  0.52409938  0.19246548  0.99182785    -0.73900
O812        O  0.54119959  0.30280897  0.49202769    -0.74000
O813        O  0.97181656  0.30677931  0.00056351    -0.73900
O814        O  0.96633362  0.19700532  0.50131056    -0.73900
O815        O  0.97238904  0.25263481  0.54372515    -0.73900
O816        O  0.96752533  0.25284750  0.95598761    -0.73900
Ni817      Ni  0.53060032  0.24673403  0.99149959     1.25400
Ni818      Ni  0.97010044  0.25148106  0.49991382     1.25400
C819        C  0.49403463  0.24936979  0.93406465     0.88300
C820        C  0.50263609  0.25250049  0.55111694     0.88200
C821        C  0.49110324  0.17693585  0.99340863     0.88300
C822        C  0.51218077  0.32455584  0.49252545     0.88400
O823        O  0.52190664  0.30851718  0.74222092    -0.73900
O824        O  0.53287176  0.20017624  0.74504889    -0.73900
O825        O  0.52959753  0.25298814  0.69944049    -0.73900
O826        O  0.52534436  0.25559882  0.78718991    -0.74000
O827        O  0.96912874  0.25752741  0.79371732    -0.73900
O828        O  0.97010205  0.25647103  0.70567569    -0.73900
O829        O  0.96149600  0.20315694  0.75053213    -0.73900
O830        O  0.97745929  0.31093667  0.74969493    -0.73900
Ni831      Ni  0.52965393  0.25456757  0.74349535     1.25400
Ni832      Ni  0.96731584  0.25735761  0.74980534     1.25400
C833        C  0.01140801  0.32429133  0.74938953     0.88300
C834        C  0.99024919  0.18107963  0.75060397     0.88200
C835        C  0.00160457  0.25192720  0.69132259     0.88300
C836        C  0.00032878  0.25297194  0.80839605     0.88400
O837        O  0.75346089  0.47010206  0.54618674    -0.73900
O838        O  0.73822563  0.46977290  0.95842583    -0.73900
O839        O  0.80860954  0.47743585  0.50273740    -0.73900
O840        O  0.68731532  0.47439055  0.00465005    -0.74000
O841        O  0.69739715  0.03791218  0.49723292    -0.73900
O842        O  0.80891180  0.03043665  0.99475684    -0.73900
O843        O  0.75128019  0.03664869  0.95365954    -0.73900
O844        O  0.75281438  0.03429142  0.53996543    -0.73900
Ni845      Ni  0.75480195  0.46885991  0.50202556     1.25400
Ni846      Ni  0.75479572  0.03698746  0.99766622     1.25400
C847        C  0.74817120  0.00354955  0.55536106     0.88300
C848        C  0.74813394  0.00563678  0.93836827     0.88200
C849        C  0.81639144  0.49326927  0.99874463     0.88300
C850        C  0.67920984  0.49401745  0.50091146     0.88400
O851        O  0.74712737  0.47004561  0.79696744    -0.73900
O852        O  0.74869376  0.46914761  0.70894827    -0.73900
O853        O  0.80206187  0.47610414  0.75341390    -0.73900
O854        O  0.69389763  0.46308099  0.75275401    -0.74000
O855        O  0.69149772  0.03365582  0.74556891    -0.73900
O856        O  0.79991333  0.04651153  0.74812118    -0.73900
O857        O  0.74678095  0.03993619  0.70265347    -0.73900
O858        O  0.74449586  0.04008432  0.79085998    -0.73900
Ni859      Ni  0.74822336  0.46733322  0.75299035     1.25400
Ni860      Ni  0.74543999  0.04234258  0.74674917     1.25400
C861        C  0.74198281  0.50147364  0.81124525     0.88300
C862        C  0.74670685  0.50064747  0.69422385     0.88200
C863        C  0.81617228  0.50973394  0.75493926     0.88300
C864        C  0.67267438  0.49245247  0.75140387     0.88400
C865        C  0.74549754  0.04147929  0.88848964    -0.12800
C866        C  0.73967742  0.50177541  0.91013037     0.09400
C867        C  0.73761003  0.46739573  0.89371451    -0.12800
C868        C  0.73817739  0.46733506  0.86163294    -0.12800
C869        C  0.74057139  0.50165955  0.84521681     0.09400
C870        C  0.74591034  0.04225423  0.85634004    -0.12800
H871        H  0.74347021  0.06808266  0.90088893     0.13400
H872        H  0.73600543  0.44040603  0.90564669     0.12400
H873        H  0.73681081  0.44034646  0.84969178     0.13400
H874        H  0.74415457  0.06942716  0.84473333     0.13400
C875        C  0.74726407  0.03998842  0.60497192    -0.12800
C876        C  0.74909613  0.50083643  0.59520934     0.09400
C877        C  0.75132391  0.46645398  0.61157398    -0.12800
C878        C  0.75065091  0.46632908  0.64372365    -0.12800
C879        C  0.74776461  0.50059180  0.66019027     0.09400
C880        C  0.74727435  0.04114539  0.63711623    -0.12800
H881        H  0.74671987  0.06652348  0.59235253     0.13400
H882        H  0.75350773  0.43960087  0.59955300     0.13400
H883        H  0.75231826  0.43937082  0.65566127     0.13400
H884        H  0.74683527  0.06853215  0.64847902     0.13400
C885        C  0.52736602  0.25162521  0.88344418    -0.12800
C886        C  0.99909475  0.25096899  0.90728480     0.09400
C887        C  0.96585827  0.25925243  0.89075568    -0.12800
C888        C  0.96627924  0.26004011  0.85864349    -0.12800
C889        C  0.99993363  0.25250380  0.84239295     0.09400
C890        C  0.52718213  0.25258221  0.85142515    -0.12800
H891        H  0.55449529  0.25210510  0.89521500     0.13400
H892        H  0.93955494  0.26535375  0.90262305     0.13400
H893        H  0.94022281  0.26663047  0.84655995     0.13400
H894        H  0.55419037  0.25357946  0.83952698     0.13400
C895        C  0.53585248  0.24804052  0.60212201    -0.12800
C896        C  0.00345688  0.25039364  0.59233574     0.09400
C897        C  0.96913501  0.25558021  0.60831241    -0.12800
C898        C  0.96850376  0.25609654  0.64040873    -0.12800
C899        C  0.00217516  0.25141644  0.65729208     0.09400
C900        C  0.53485781  0.24729797  0.63426405    -0.12800
H901        H  0.56300446  0.24561002  0.59061711     0.13400
H902        H  0.94264066  0.25926178  0.59602124     0.13400
H903        H  0.94159942  0.26015981  0.65197873     0.13400
H904        H  0.56128180  0.24431530  0.64678424     0.13400
C905        C  0.60734452  0.51139009  0.73871480    -0.15900
C906        C  0.63121967  0.48738175  0.75267915    -0.31000
H907        H  0.62409204  0.03228290  0.71169886     0.13200
H908        H  0.61994431  0.46333785  0.76557643     0.13700
C909        C  0.88163899  0.49226095  0.74216807    -0.15900
C910        C  0.85754612  0.51492384  0.75726037    -0.31000
H911        H  0.87077910  0.47098581  0.72626349     0.13200
H912        H  0.87373830  0.04531932  0.76360520     0.13700
C913        C  0.01727644  0.36567674  0.74796499    -0.15900
C914        C  0.99667750  0.38943989  0.76526479    -0.31000
H915        H  0.46033262  0.37561492  0.72554501     0.13200
H916        H  0.97782843  0.37815001  0.78285887     0.13700
C917        C  0.00494516  0.11533651  0.73623508    -0.15900
C918        C  0.98394619  0.13981676  0.75247860    -0.31000
H919        H  0.46555914  0.12474635  0.71317461     0.13200
H920        H  0.96141935  0.12933880  0.76737114     0.13700
C921        C  0.63785170  0.48878107  0.49827986    -0.15900
C922        C  0.61333394  0.50994938  0.51433963    -0.31000
H923        H  0.62320661  0.03615329  0.51153136     0.13200
H924        H  0.61873821  0.47016508  0.97586404     0.13700
C925        C  0.85770923  0.48884205  0.99554501    -0.15900
C926        C  0.88975855  0.01662427  0.00298924    -0.31000
H927        H  0.86829062  0.46505839  0.98218383     0.13200
H928        H  0.87389583  0.03050903  0.46450432     0.13700
C929        C  0.48709120  0.38630068  0.00949971    -0.15900
C930        C  0.50620954  0.36312566  0.99059947    -0.31000
H931        H  0.96740826  0.37554358  0.03242110     0.13200
H932        H  0.53892746  0.37747270  0.47564372     0.13700
C933        C  0.01490762  0.11306971  0.98759338    -0.15900
C934        C  0.48752123  0.13520001  0.99532956    -0.31000
H935        H  0.53326397  0.12340719  0.96564261     0.13200
H936        H  0.96825334  0.12235823  0.51582966     0.13700
O937        O  0.54993819  0.99207091  0.45868388    -0.73900
O938        O  0.95098090  0.49262938  0.46820359    -0.73900
O939        O  0.50522638  0.55437081  0.47116044    -0.73900
O940        O  0.99133995  0.94444227  0.45812712    -0.74000
O941        O  0.49963123  0.94619066  0.01706130    -0.73900
O942        O  0.00268070  0.55791100  0.02114532    -0.73900
O943        O  0.95026573  0.01222954  0.02625816    -0.73900
O944        O  0.55149313  0.49837939  0.02199658    -0.73900
Ni945      Ni  0.50593370  0.49972564  0.47378408     1.25400
Ni946      Ni  0.99807073  0.50458958  0.02939373     1.25400
C947        C  0.57347672  0.99201616  0.98752038     0.88300
C948        C  0.92341519  0.50720527  0.00715089     0.88200
C949        C  0.00203567  0.57015226  0.49034335     0.88300
C950        C  0.49001861  0.93009708  0.48919696     0.88400
O951        O  0.51137602  0.95420989  0.28633849    -0.73900
O952        O  0.99678414  0.55444315  0.26826992    -0.73900
O953        O  0.94804801  0.99632010  0.26888226    -0.73900
O954        O  0.55913190  0.50640819  0.27213026    -0.74000
O955        O  0.56175865  0.00120063  0.22839649    -0.73900
O956        O  0.95046619  0.48658844  0.21990042    -0.73900
O957        O  0.49123756  0.55503957  0.22744339    -0.73900
O958        O  0.01120627  0.93742276  0.23150867    -0.73900
Ni959      Ni  0.00135250  0.00085103  0.27700020     1.25400
Ni960      Ni  0.00470581  0.49035554  0.22314197     1.25400
C961        C  0.00834893  0.92437750  0.25886054     0.88300
C962        C  0.99856832  0.56712720  0.24073145     0.88200
C963        C  0.93508848  0.99135745  0.24165421     0.88300
C964        C  0.57843915  0.00923389  0.25378949     0.88400
O965        O  0.52642032  0.75198710  0.46685125    -0.73900
O966        O  0.54726374  0.74935571  0.05458833    -0.73900
O967        O  0.51974971  0.69607395  0.50902547    -0.73900
O968        O  0.54530240  0.80553784  0.01224649    -0.74000
O969        O  0.97105212  0.80616543  0.49818716    -0.73900
O970        O  0.96002539  0.69935145  0.00212743    -0.73900
O971        O  0.96841729  0.75421105  0.04457061    -0.73900
O972        O  0.96511672  0.75090747  0.45533453    -0.73900
Ni973      Ni  0.52761994  0.75011419  0.51069456     1.25400
Ni974      Ni  0.96377835  0.75374739  0.00082959     1.25400
C975        C  0.49522484  0.75404788  0.45178472     0.88300
C976        C  0.51555828  0.74766986  0.06908387     0.88200
C977        C  0.48635569  0.68133520  0.50975814     0.88300
C978        C  0.51319070  0.82237409  0.01251508     0.88400
O979        O  0.53355632  0.80869015  0.25999581    -0.73900
O980        O  0.54206257  0.70011748  0.26482552    -0.73900
O981        O  0.54113922  0.75183019  0.21811463    -0.73900
O982        O  0.53451016  0.75685354  0.30591043    -0.74000
O983        O  0.96849421  0.74469787  0.29286691    -0.73900
O984        O  0.97099177  0.74130068  0.20508764    -0.73900
O985        O  0.97495748  0.68864625  0.25023282    -0.73900
O986        O  0.96469656  0.79705548  0.24699074    -0.73900
Ni987      Ni  0.54008541  0.75458106  0.26227403     1.25400
Ni988      Ni  0.96754216  0.74265536  0.24880647     1.25400
C989        C  0.99462330  0.81794283  0.24735650     0.88300
C990        C  0.00824116  0.67422830  0.25189664     0.88200
C991        C  0.00276497  0.74453760  0.19098408     0.88300
C992        C  0.99959267  0.74831407  0.30799752     0.88400
O993        O  0.75268537  0.96983013  0.04002523    -0.73900
O994        O  0.74598181  0.96739325  0.45363390    -0.73900
O995        O  0.80320410  0.96724271  0.99271813    -0.73900
O996        O  0.69061098  0.97478877  0.49643967    -0.74000
O997        O  0.69410679  0.53754002  0.00581352    -0.73900
O998        O  0.80163874  0.54045778  0.50431269    -0.73900
O999        O  0.74857374  0.53511056  0.45903743    -0.73900
O1000       O  0.75103095  0.53123794  0.04672895    -0.73900
Ni1001     Ni  0.74901159  0.96930535  0.99589664     1.25400
Ni1002     Ni  0.74725644  0.53631872  0.50317085     1.25400
C1003       C  0.74826600  0.49952531  0.06106156     0.88300
C1004       C  0.75247157  0.50395114  0.44408810     0.88200
C1005       C  0.82032429  0.99367149  0.49712810     0.88300
C1006       C  0.67986017  0.00853855  0.00041347     0.88400
O1007       O  0.75523538  0.96497598  0.29047715    -0.73900
O1008       O  0.76164986  0.96646769  0.20246281    -0.73900
O1009       O  0.81281358  0.97012291  0.24889924    -0.73900
O1010       O  0.70428855  0.96143246  0.24337826    -0.74000
O1011       O  0.69364261  0.52807399  0.25190834    -0.73900
O1012       O  0.80201527  0.53928917  0.25266897    -0.73900
O1013       O  0.74810311  0.53265024  0.20821628    -0.73900
O1014       O  0.74765227  0.53462561  0.29621322    -0.73900
Ni1015     Ni  0.75868835  0.96346427  0.24633233     1.25400
Ni1016     Ni  0.74762390  0.53592692  0.25216155     1.25400
C1017       C  0.75175188  0.99635922  0.30522320     0.88300
C1018       C  0.76012359  0.99832776  0.18824616     0.88200
C1019       C  0.82804011  0.00324520  0.25080166     0.88300
C1020       C  0.68426119  0.99169810  0.24293828     0.88400
C1021       C  0.74818632  0.53833579  0.39360950    -0.12800
C1022       C  0.74803323  0.99743664  0.40424613     0.09400
C1023       C  0.75009977  0.96276162  0.38824726    -0.12800
C1024       C  0.75102653  0.96222641  0.35607107    -0.12800
C1025       C  0.74974885  0.99634438  0.33925489     0.09400
C1026       C  0.74814591  0.53821713  0.36145806    -0.12800
H1027       H  0.74410032  0.56501402  0.40554325     0.13400
H1028       H  0.75140398  0.93605395  0.40058036     0.12400
H1029       H  0.75298555  0.93512399  0.34439319     0.13400
H1030       H  0.74404449  0.56482023  0.34940608     0.13400
C1031       C  0.74928403  0.53401286  0.11132382    -0.12800
C1032       C  0.75864612  0.00002277  0.08923515     0.09400
C1033       C  0.76134738  0.96539550  0.10518190    -0.12800
C1034       C  0.76253105  0.96484385  0.13732099    -0.12800
C1035       C  0.76087572  0.99890684  0.15420201     0.09400
C1036       C  0.74928231  0.53433231  0.14339325    -0.12800
H1037       H  0.74930169  0.56094571  0.09925511     0.13400
H1038       H  0.76237760  0.93868610  0.09284136     0.13400
H1039       H  0.76428610  0.93767651  0.14893622     0.13400
H1040       H  0.74948690  0.56148727  0.15512500     0.13400
C1041       C  0.53170178  0.75458885  0.40252062    -0.12800
C1042       C  0.99736621  0.74926901  0.40695145     0.09400
C1043       C  0.96329893  0.74939225  0.39005683    -0.12800
C1044       C  0.96396574  0.74928163  0.35792491    -0.12800
C1045       C  0.99871321  0.74921065  0.34200423     0.09400
C1046       C  0.53333871  0.75504456  0.37050465    -0.12800
H1047       H  0.55811780  0.75411767  0.41530017     0.13400
H1048       H  0.93607776  0.74933112  0.40164820     0.13400
H1049       H  0.93723878  0.74916606  0.34556750     0.13400
H1050       H  0.56095185  0.75474858  0.35953586     0.13400
C1051       C  0.54874269  0.74833441  0.12040785    -0.12800
C1052       C  0.00166203  0.74928139  0.09210478     0.09400
C1053       C  0.96760171  0.74786952  0.10888684    -0.12800
C1054       C  0.96816201  0.74581712  0.14087203    -0.12800
C1055       C  0.00280102  0.74534825  0.15696680     0.09400
C1056       C  0.54753821  0.74850725  0.15260284    -0.12800
H1057       H  0.57609535  0.74961205  0.10905630     0.13400
H1058       H  0.94034763  0.74815743  0.09730722     0.13400
H1059       H  0.94130429  0.74490251  0.15299513     0.13400
H1060       H  0.57399948  0.74989797  0.16528812     0.13400
C1061       C  0.61993473  0.01340985  0.25470218    -0.15900
C1062       C  0.64268628  0.98837673  0.24071616    -0.31000
H1063       H  0.62418255  0.53077431  0.22265926     0.13200
H1064       H  0.63052353  0.96385865  0.22900234     0.13700
C1065       C  0.89380143  0.98783895  0.23692038    -0.15900
C1066       C  0.86934547  0.00711491  0.25451559    -0.31000
H1067       H  0.88333443  0.97015825  0.21822308     0.13200
H1068       H  0.87602271  0.53811690  0.26561789     0.13700
C1069       C  0.99080058  0.85934055  0.24488732    -0.15900
C1070       C  0.00972532  0.88305965  0.26363468    -0.31000
H1071       H  0.47616441  0.87493759  0.23653092     0.13200
H1072       H  0.02601278  0.87196447  0.28283435     0.13700
C1073       C  0.99633446  0.60839121  0.23547612    -0.15900
C1074       C  0.01241794  0.63294722  0.25519705    -0.31000
H1075       H  0.46837294  0.62673439  0.23759885     0.13200
H1076       H  0.02989030  0.62250771  0.27395137     0.13700
C1077       C  0.63816932  0.01177358  0.00235883    -0.15900
C1078       C  0.61511091  0.98814635  0.98671721    -0.31000
H1079       H  0.62076649  0.53481111  0.02319651     0.13200
H1080       H  0.62246497  0.96929632  0.46630067     0.13700
C1081       C  0.86198359  0.98914182  0.49821778    -0.15900
C1082       C  0.88762342  0.49535336  0.48734028    -0.31000
H1083       H  0.87350136  0.96649450  0.51239122     0.13200
H1084       H  0.87164251  0.53333237  0.02597120     0.13700
C1085       C  0.48497759  0.88857680  0.49092084    -0.15900
C1086       C  0.50582280  0.86703130  0.50989262    -0.31000
H1087       H  0.96573485  0.87236997  0.46757169     0.13200
H1088       H  0.53414354  0.87857229  0.02761354     0.13700
C1089       C  0.00449982  0.61149098  0.48553948    -0.15900
C1090       C  0.48188246  0.63974720  0.51049493    -0.31000
H1091       H  0.51983543  0.62924112  0.47409371     0.13200
H1092       H  0.96243766  0.62633355  0.01974561     0.13700
O1093       O  0.55472761  0.98834828  0.96246230    -0.73900
O1094       O  0.93803687  0.50061845  0.98072300    -0.73900
O1095       O  0.49406851  0.55095204  0.97008909    -0.73900
O1096       O  0.99457956  0.94287630  0.97975086    -0.74000
O1097       O  0.49604497  0.94934483  0.51374237    -0.73900
O1098       O  0.99671611  0.55727054  0.51753904    -0.73900
O1099       O  0.94365824  0.00103053  0.50824304    -0.73900
O1100       O  0.54959403  0.50893871  0.53253213    -0.73900
Ni1101     Ni  0.49173607  0.49630814  0.97281056     1.25400
Ni1102     Ni  0.99599628  0.50390205  0.52603688     1.25400
C1103       C  0.56939832  0.99492092  0.48346402     0.88300
C1104       C  0.92909569  0.49735349  0.49140445     0.88200
C1105       C  0.00183195  0.57103634  0.99370527     0.88300
C1106       C  0.49456072  0.92636732  0.99265936     0.88400
O1107       O  0.50422997  0.94785855  0.76229632    -0.73900
O1108       O  0.98981236  0.56076724  0.76973968    -0.73900
O1109       O  0.94107825  0.00566185  0.76783658    -0.73900
O1110       O  0.55319840  0.50712198  0.77083766    -0.74000
O1111       O  0.55138311  0.00775033  0.70649153    -0.73900
O1112       O  0.94418777  0.49167827  0.72197319    -0.73900
O1113       O  0.48501076  0.55463977  0.72552505    -0.73900
O1114       O  0.00277862  0.94391586  0.73120362    -0.73900
Ni1115     Ni  0.99454911  0.00787038  0.77649526     1.25400
Ni1116     Ni  0.99836098  0.49699385  0.72437880     1.25400
C1117       C  0.99918346  0.93106631  0.75857044     0.88300
C1118       C  0.99073924  0.57352992  0.74219749     0.88200
C1119       C  0.92837518  0.00111731  0.74047072     0.88300
C1120       C  0.57093535  0.00883132  0.73131196     0.88400
O1121       O  0.54591567  0.75313690  0.96608384    -0.73900
O1122       O  0.52443381  0.74872030  0.55453330    -0.73900
O1123       O  0.54878411  0.69681107  0.00924260    -0.73900
O1124       O  0.53097246  0.80458769  0.51218212    -0.74000
O1125       O  0.97197353  0.80775074  0.99995232    -0.73900
O1126       O  0.95869029  0.69802053  0.50070790    -0.73900
O1127       O  0.96495164  0.75321691  0.54341291    -0.73900
O1128       O  0.96367975  0.75270514  0.95664585    -0.73900
Ni1129     Ni  0.54910199  0.75128931  0.01043041     1.25400
Ni1130     Ni  0.96269731  0.75232158  0.49937181     1.25400
C1131       C  0.51381749  0.75252092  0.95194773     0.88300
C1132       C  0.49292702  0.75264217  0.56889374     0.88200
C1133       C  0.51777444  0.67762606  0.00876312     0.88300
C1134       C  0.50132515  0.82539061  0.51042240     0.88400
O1135       O  0.52742718  0.80888543  0.75680319    -0.73900
O1136       O  0.53544220  0.70033082  0.76164860    -0.73900
O1137       O  0.52847587  0.75186193  0.71539813    -0.73900
O1138       O  0.53467103  0.75744264  0.80298254    -0.74000
O1139       O  0.96132596  0.75094079  0.79321954    -0.73900
O1140       O  0.96347782  0.74714630  0.70522651    -0.73900
O1141       O  0.96790964  0.69490241  0.75064407    -0.73900
O1142       O  0.95690238  0.80323301  0.74703035    -0.73900
Ni1143     Ni  0.53372723  0.75479000  0.75907490     1.25400
Ni1144     Ni  0.96014100  0.74883296  0.74905438     1.25400
C1145       C  0.98668780  0.82433263  0.74710165     0.88300
C1146       C  0.00128410  0.68069797  0.75231818     0.88200
C1147       C  0.99529717  0.75004803  0.69111264     0.88300
C1148       C  0.99259087  0.75447833  0.80816896     0.88400
O1149       O  0.74378577  0.97153709  0.54165991    -0.73900
O1150       O  0.74606118  0.97347572  0.95213831    -0.73900
O1151       O  0.79911040  0.96403234  0.49904925    -0.73900
O1152       O  0.69502889  0.97561004  0.99852943    -0.74000
O1153       O  0.69334568  0.52765140  0.50232096    -0.73900
O1154       O  0.80211751  0.52662517  0.00045740    -0.73900
O1155       O  0.74496606  0.53283424  0.95890990    -0.73900
O1156       O  0.74649594  0.53303542  0.54701656    -0.73900
Ni1157     Ni  0.74463650  0.96717370  0.49773468     1.25400
Ni1158     Ni  0.74831549  0.53430536  0.00294722     1.25400
C1159       C  0.74970415  0.50127054  0.56116299     0.88300
C1160       C  0.74083549  0.50152378  0.94413258     0.88200
C1161       C  0.82377835  0.99735519  0.99240810     0.88300
C1162       C  0.67620776  0.00816748  0.49701270     0.88400
O1163       O  0.75397723  0.97748737  0.79088795    -0.73900
O1164       O  0.75130137  0.97676259  0.70313541    -0.73900
O1165       O  0.80689799  0.98356019  0.74585925    -0.73900
O1166       O  0.69862543  0.97073072  0.74836927    -0.74000
O1167       O  0.68690795  0.52604245  0.75019824    -0.73900
O1168       O  0.79487780  0.53908572  0.75512242    -0.73900
O1169       O  0.74368233  0.53228621  0.70861248    -0.73900
O1170       O  0.73815466  0.53273646  0.79646241    -0.73900
Ni1171     Ni  0.75297884  0.97492379  0.74701957     1.25400
Ni1172     Ni  0.74065383  0.53478089  0.75252181     1.25400
C1173       C  0.74913625  0.00874295  0.80543166     0.88300
C1174       C  0.74877610  0.00813802  0.68833479     0.88200
C1175       C  0.82120199  0.01711682  0.74737413     0.88300
C1176       C  0.67731788  0.00004943  0.74709816     0.88400
C1177       C  0.74163423  0.53614903  0.89371156    -0.12800
C1178       C  0.74764491  0.00673857  0.90437630     0.09400
C1179       C  0.75034838  0.97285995  0.88745308    -0.12800
C1180       C  0.75099890  0.97364861  0.85540342    -0.12800
C1181       C  0.74873483  0.00831882  0.83945402     0.09400
C1182       C  0.74194932  0.53609479  0.86158653    -0.12800
H1183       H  0.74322717  0.56311242  0.90566879     0.13400
H1184       H  0.75231993  0.94564123  0.89897073     0.12400
H1185       H  0.75320560  0.94697437  0.84312517     0.13400
H1186       H  0.74381172  0.56302233  0.84958395     0.13400
C1187       C  0.74629697  0.53506102  0.61171527    -0.12800
C1188       C  0.74787598  0.00497425  0.58936779     0.09400
C1189       C  0.74824757  0.97120230  0.60658824    -0.12800
C1190       C  0.74846506  0.97235697  0.63864943    -0.12800
C1191       C  0.74813551  0.00731507  0.65430628     0.09400
C1192       C  0.74565627  0.53493884  0.64379518    -0.12800
H1193       H  0.74459616  0.56207061  0.59985480     0.13400
H1194       H  0.74868952  0.94377117  0.59529476     0.13400
H1195       H  0.74896471  0.94574817  0.65116578     0.13400
H1196       H  0.74343604  0.56184251  0.65574126     0.13400
C1197       C  0.54495556  0.75739325  0.89998413    -0.12800
C1198       C  0.99344046  0.75079049  0.90712419     0.09400
C1199       C  0.95876455  0.75070700  0.89103595    -0.12800
C1200       C  0.95829576  0.75219072  0.85886943    -0.12800
C1201       C  0.99248906  0.75403705  0.84220714     0.09400
C1202       C  0.54250407  0.75788998  0.86785471    -0.12800
H1203       H  0.57263492  0.75971771  0.91074251     0.13400
H1204       H  0.93201026  0.74933256  0.90327884     0.13400
H1205       H  0.93118815  0.75180799  0.84707050     0.13400
H1206       H  0.56844624  0.76052367  0.85463466     0.13400
C1207       C  0.52773008  0.75127888  0.61895364    -0.12800
C1208       C  0.99613580  0.74884636  0.59211089     0.09400
C1209       C  0.96169559  0.74722476  0.60836723    -0.12800
C1210       C  0.96151691  0.74728496  0.64046376    -0.12800
C1211       C  0.99577035  0.74922141  0.65707781     0.09400
C1212       C  0.52846059  0.75060500  0.65098823    -0.12800
H1213       H  0.55451565  0.75140568  0.60671321     0.13400
H1214       H  0.93480273  0.74576586  0.59628846     0.13400
H1215       H  0.93444562  0.74602916  0.65225161     0.13400
H1216       H  0.55579741  0.75023956  0.66243062     0.13400
C1217       C  0.61244719  0.01390724  0.72948808    -0.15900
C1218       C  0.63583282  0.99480664  0.74822402    -0.31000
H1219       H  0.61812214  0.53355667  0.72358794     0.13200
H1220       H  0.62433723  0.97353305  0.76384999     0.13700
C1221       C  0.88701888  0.99874322  0.73528191    -0.15900
C1222       C  0.86277218  0.02203596  0.74968393    -0.31000
H1223       H  0.87629872  0.97761999  0.71917819     0.13200
H1224       H  0.86843286  0.53853119  0.77084709     0.13700
C1225       C  0.98262056  0.86570228  0.74421191    -0.15900
C1226       C  0.00002301  0.88973105  0.76364774    -0.31000
H1227       H  0.46972344  0.87913892  0.77262469     0.13200
H1228       H  0.01499448  0.87883154  0.78361055     0.13700
C1229       C  0.98782695  0.61474225  0.73703279    -0.15900
C1230       C  0.00572973  0.63942879  0.75560073    -0.31000
H1231       H  0.46252895  0.62697659  0.73453959     0.13200
H1232       H  0.02494129  0.62908962  0.77324711     0.13700
C1233       C  0.63460576  0.01272034  0.49820061    -0.15900
C1234       C  0.61097023  0.99024382  0.48205724    -0.31000
H1235       H  0.62728042  0.46645878  0.48319746     0.13200
H1236       H  0.62717611  0.96715727  0.97127709     0.13700
C1237       C  0.86516171  0.99331126  0.98881559    -0.15900
C1238       C  0.88214721  0.51198547  0.01011343    -0.31000
H1239       H  0.87570500  0.96894120  0.97612922     0.13200
H1240       H  0.87604948  0.47667860  0.46973811     0.13700
C1241       C  0.49087537  0.88464481  0.99466171    -0.15900
C1242       C  0.51287192  0.86423842  0.01358595    -0.31000
H1243       H  0.96889221  0.87775615  0.02844873     0.13200
H1244       H  0.52826410  0.87993767  0.52362184     0.13700
C1245       C  0.00598248  0.61220418  0.98878808    -0.15900
C1246       C  0.51973482  0.63582521  0.00964752    -0.31000
H1247       H  0.48255632  0.62642164  0.97242313     0.13200
H1248       H  0.96118437  0.62439842  0.51714215     0.13700
loop_ 
_geom_bond_atom_site_label_1 
_geom_bond_atom_site_label_2 
_geom_bond_distance 
_geom_bond_site_symmetry_2 
_ccdc_geom_bond_type 
O1         Ni321   1.914       .  S
O1          C167   1.281       .  A
O2         Ni633   1.921       .  S
O2          C168   1.281       .  A
O3           Ni9   1.918   1_545  S
O3          C637   1.280       .  A
O4         Ni945   1.915       .  S
O4          C638   1.281       .  A
O5         Ni946   1.926       .  S
O5          C170   1.282       .  A
O6          Ni10   1.922       .  S
O6          C169   1.282   1_554  A
O7         Ni322   1.915       .  S
O7          C324   1.279       .  A
O8         Ni634   1.920   1_565  S
O8          C323   1.282   1_554  A
Ni9         O313   1.923       .  S
Ni9         O626   1.923   1_465  S
Ni9         O940   1.917   1_455  S
Ni9        Ni790   2.387   1_455  S
Ni10        O941   1.923   1_545  S
Ni10        O319   1.919       .  S
Ni10        O632   1.922   1_545  S
Ni10       Ni789   2.387   1_544  S
C11         O157   1.278       .  A
C11         O320   1.282   1_556  A
C11         C142   1.467       .  S
C12         O158   1.279       .  A
C12         O319   1.281   1_556  A
C12         C302   1.468       .  S
C13         O627   1.280       .  A
C13         O162   1.282       .  A
C13         C153   1.471       .  S
C14         O628   1.281   1_655  A
C14         O161   1.282       .  A
C14         C149   1.474       .  S
O15        Ni647   1.922       .  S
O15         C649   1.281   1_655  A
O16        Ni335   1.914       .  S
O16          C26   1.280       .  A
O17         Ni23   1.924       .  S
O17          C27   1.281       .  A
O18        Ni959   1.915       .  S
O18         C340   1.279       .  A
O19        Ni960   1.918       .  S
O19          C28   1.282       .  A
O20         Ni24   1.909       .  S
O20         C339   1.278       .  A
O21        Ni648   1.920   1_545  S
O21         C650   1.281       .  A
O22        Ni336   1.922       .  S
O22          C25   1.282       .  A
Ni23        O639   1.912       .  S
Ni23        O328   1.924       .  S
Ni23        O954   1.912       .  S
Ni23       Ni336   2.393       .  S
Ni24        O955   1.920   1_565  S
Ni24        O645   1.922   1_565  S
Ni24        O334   1.910       .  S
Ni24       Ni335   2.393   1_565  S
C25         O639   1.279       .  A
C25         C134   1.467       .  S
C26         O645   1.281       .  A
C26         C137   1.469       .  S
C27         O332   1.280       .  A
C27         C129   1.470       .  S
C28         O330   1.280       .  A
C28         C125   1.471       .  S
O29         Ni37   1.914       .  S
O29          C39   1.281       .  A
O30        Ni193   1.919   1_554  S
O30          C40   1.283   1_455  A
O31         Ni37   1.918       .  S
O31          C41   1.281   1_455  A
O32        Ni193   1.918       .  S
O32          C42   1.280       .  A
O33        Ni194   1.920       .  S
O33         C822   1.282       .  A
O34         Ni38   1.921       .  S
O34         C821   1.281       .  A
O35         Ni38   1.911   1_554  S
O35         C664   1.281       .  A
O36        Ni194   1.919       .  S
O36         C663   1.282       .  A
Ni37        O186   1.925       .  S
Ni37        O188   1.918       .  S
Ni37       Ni818   2.389   1_455  S
Ni38        O189   1.922       .  S
Ni38        O192   1.925       .  S
Ni38       Ni817   2.389       .  S
C39         O660   1.283   1_455  A
C39         C730   1.481       .  S
C40         O659   1.281       .  A
C40         C740   1.480   1_655  S
C41         O814   1.280       .  A
C41         C154   1.472       .  S
C42         O813   1.280   1_456  A
C42         C306   1.468       .  S
O43         Ni51   1.916       .  S
O43         C677   1.279       .  A
O44         Ni51   1.916       .  S
O44         C678   1.281   1_455  A
O45         Ni51   1.911       .  S
O45         C679   1.281       .  A
O46         Ni51   1.922       .  S
O46         C680   1.283       .  A
O47         Ni52   1.920       .  S
O47          C56   1.282       .  A
O48         Ni52   1.909       .  S
O48          C55   1.280       .  A
O49         Ni52   1.921       .  S
O49          C54   1.282       .  A
O50         Ni52   1.920       .  S
O50          C53   1.280       .  A
Ni51       Ni676   2.389   1_455  S
Ni52       Ni675   2.389       .  S
C53         O667   1.281       .  A
C53         C133   1.471       .  S
C54         O668   1.279       .  A
C54         C138   1.470       .  S
C55         O669   1.283       .  A
C55         C119   1.480       .  S
C56         O670   1.281       .  A
C56         C109   1.481       .  S
O57         Ni65   1.922   1_554  S
O57         C379   1.283       .  A
O58        Ni221   1.909       .  S
O58         C380   1.280       .  A
O59         Ni65   1.916       .  S
O59         C225   1.280       .  A
O60        Ni221   1.916       .  S
O60         C226   1.279       .  A
O61        Ni222   1.916       .  S
O61         C382   1.280       .  A
O62         Ni66   1.919       .  S
O62         C381   1.281   1_545  A
O63         Ni66   1.917       .  S
O63          C68   1.282   1_545  A
O64        Ni222   1.919       .  S
O64          C67   1.282   1_545  A
Ni65        O214   1.913       .  S
Ni65        O216   1.917   1_556  S
Ni65       Ni534   2.390   1_556  S
Ni66        O217   1.918       .  S
Ni66        O220   1.918       .  S
Ni66       Ni533   2.388   1_545  S
C67         O369   1.282       .  A
C67         C408   1.480       .  S
C68         O370   1.281       .  A
C68         C398   1.480       .  S
C69         O215   1.281       .  A
C69         O374   1.280       .  A
C69         C145   1.469       .  S
C70         O216   1.281       .  A
C70         O373   1.279       .  A
C70         C141   1.468       .  S
O71         Ni79   1.919       .  S
O71          C81   1.283       .  A
O72         Ni79   1.920       .  S
O72          C82   1.282       .  A
O73         Ni79   1.920       .  S
O73          C83   1.281       .  A
O74         Ni79   1.919       .  S
O74          C84   1.280       .  A
O75         Ni80   1.917       .  S
O75         C396   1.281   1_545  A
O76         Ni80   1.918       .  S
O76         C395   1.280       .  A
O77         Ni80   1.921       .  S
O77         C394   1.282   1_545  A
O78         Ni80   1.910       .  S
O78         C393   1.280   1_545  A
Ni79       Ni392   2.388       .  S
Ni80       Ni391   2.389   1_545  S
C81         O390   1.281       .  A
C81          C89   1.481       .  S
C82         O389   1.281       .  A
C82          C99   1.480       .  S
C83         O388   1.279       .  A
C83         C130   1.468       .  S
C84         O387   1.281       .  A
C84         C126   1.471       .  S
C85          C90   1.396       .  A
C85         C398   1.404   1_545  A
C85          H91   1.083       .  S
C86         C380   1.481       .  S
C86          C87   1.407       .  A
C86         C397   1.405       .  A
C87          C88   1.397       .  A
C87          H92   1.083       .  S
C88          C89   1.404       .  A
C88          H93   1.083       .  S
C89         C402   1.407       .  A
C90         C401   1.406   1_545  A
C90          H94   1.083       .  S
C95         C100   1.399       .  A
C95         C408   1.406   1_545  A
C95         H101   1.083       .  S
C96         C379   1.481       .  S
C96          C97   1.406       .  A
C96         C407   1.405       .  A
C97          C98   1.400       .  A
C97         H102   1.083       .  S
C98          C99   1.406       .  A
C98         H103   1.083       .  S
C99         C412   1.405       .  A
C100        C411   1.406   1_545  A
C100        H104   1.083       .  S
C105        C110   1.398       .  A
C105        C730   1.407       .  A
C105        H111   1.083       .  S
C106        C663   1.481       .  S
C106        C107   1.406       .  A
C106        C729   1.405       .  A
C107        C108   1.399       .  A
C107        H112   1.083       .  S
C108        C109   1.406       .  A
C108        H113   1.083       .  S
C109        C734   1.406       .  A
C110        C733   1.405       .  A
C110        H114   1.083       .  S
C115        C120   1.397       .  A
C115        C740   1.404       .  A
C115        H121   1.083       .  S
C116        C664   1.480       .  S
C116        C117   1.405       .  A
C116        C739   1.406       .  A
C117        C118   1.395       .  A
C117        H122   1.083       .  S
C118        C119   1.405       .  A
C118        H123   1.083       .  S
C119        C744   1.406       .  A
C120        C743   1.406       .  A
C120        H124   1.083       .  S
C125        C126   1.340       .  D
C125        H439   1.087       .  S
C126        H128   1.087       .  S
H127        C437   1.086       .  S
C129        C130   1.340       .  D
C129        H131   1.087       .  S
C130        H444   1.087       .  S
H132        C442   1.087       .  S
C133        C134   1.340       .  D
C133        H759   1.087       .  S
C134        H136   1.087       .  S
H135        C757   1.087       .  S
C137        C138   1.340       .  D
C137        H763   1.087       .  S
C138        H140   1.087       .  S
H139        C761   1.087       .  S
C141        C142   1.338   1_554  D
C141        H455   1.087       .  S
C142        H300   1.087       .  S
H143        C453   1.087       .  S
H144        C298   1.087       .  S
C145        C458   1.341       .  D
C145        H147   1.087       .  S
C146        C168   1.473       .  S
C146        C457   1.343   1_545  D
C146        H304   1.087       .  S
H148        C302   1.087       .  S
C149        C150   1.342   1_655  D
C149        H775   1.087       .  S
C150        C198   1.471       .  S
C150        H308   1.087       .  S
H151        C773   1.088       .  S
H152        C306   1.087       .  S
C153        C778   1.341       .  D
C153        H779   1.087       .  S
C154        C777   1.341   1_655  D
C154        H936   1.087       .  S
H155        C777   1.087       .  S
H156        C934   1.088   1_554  S
O157       Ni477   1.910   1_455  S
O158       Ni789   1.917   1_545  S
O159       Ni165   1.923   1_545  S
O159        C793   1.281       .  A
O160      Ni1101   1.914       .  S
O160        C794   1.280   1_556  A
O161      Ni1102   1.925       .  S
O162       Ni166   1.921       .  S
O163       Ni478   1.913       .  S
O163        C480   1.280       .  A
O164       Ni790   1.922   1_455  S
O164        C479   1.282       .  A
Ni165       O469   1.916       .  S
Ni165       O782   1.926   1_465  S
Ni165      O1096   1.913   1_455  S
Ni165      Ni634   2.393   1_566  S
Ni166      O1097   1.921   1_545  S
Ni166       O475   1.921       .  S
Ni166       O788   1.922       .  S
Ni166      Ni633   2.386       .  S
C167        O476   1.280       .  A
C167        C298   1.469       .  S
C168        O475   1.282       .  A
C169        O783   1.280       .  A
C169        C309   1.473       .  S
C170        O784   1.279   1_554  A
C170        C305   1.469       .  S
O171       Ni803   1.923       .  S
O171        C805   1.281       .  A
O172       Ni491   1.919       .  S
O172        C182   1.282       .  A
O173       Ni179   1.925       .  S
O173        C183   1.281       .  A
O174      Ni1115   1.919   1_455  S
O174        C496   1.280       .  A
O175      Ni1116   1.917   1_455  S
O175        C184   1.281       .  A
O176       Ni180   1.920       .  S
O176        C495   1.281       .  A
O177       Ni804   1.922   1_545  S
O177        C806   1.281       .  A
O178       Ni492   1.924       .  S
O178        C181   1.283       .  A
Ni179       O795   1.913       .  S
Ni179       O484   1.924       .  S
Ni179      O1110   1.912       .  S
Ni179      Ni492   2.392       .  S
Ni180      O1111   1.921   1_565  S
Ni180       O801   1.919   1_565  S
Ni180       O490   1.918       .  S
Ni180      Ni491   2.387   1_565  S
C181        O795   1.279       .  A
C181        C290   1.471       .  S
C182        O801   1.280       .  A
C182        C293   1.472       .  S
C183        O488   1.280       .  A
C183        C285   1.471       .  S
C184        O486   1.280       .  A
C184        C281   1.469       .  S
O185       Ni193   1.909       .  S
O185        C195   1.280   1_455  A
O186        C196   1.284       .  A
O187       Ni193   1.917       .  S
O187        C197   1.281   1_455  A
O188        C198   1.280       .  A
O189        C666   1.281       .  A
O190       Ni194   1.920       .  S
O190        C665   1.281       .  A
O191       Ni194   1.907       .  S
O191        C820   1.280       .  A
O192        C819   1.283       .  A
Ni193      Ni662   2.390   1_456  S
Ni194      Ni661   2.389       .  S
C195        O816   1.283       .  A
C195        C886   1.479       .  S
C196        O815   1.280   1_455  A
C196        C896   1.481       .  S
C197        O658   1.280   1_556  A
C197        C310   1.469   1_556  S
C198        O657   1.282   1_455  A
O199       Ni207   1.920       .  S
O199        C833   1.280       .  A
O200       Ni207   1.918       .  S
O200        C834   1.281   1_455  A
O201       Ni207   1.910       .  S
O201        C835   1.280       .  A
O202       Ni207   1.920       .  S
O202        C836   1.283       .  A
O203       Ni208   1.927       .  S
O203        C212   1.283       .  A
O204       Ni208   1.914       .  S
O204        C211   1.282       .  A
O205       Ni208   1.920       .  S
O205        C210   1.281       .  A
O206       Ni208   1.918       .  S
O206        C209   1.280       .  A
Ni207      Ni832   2.389   1_455  S
Ni208      Ni831   2.389       .  S
C209        O823   1.282       .  A
C209        C289   1.472       .  S
C210        O824   1.280       .  A
C210        C294   1.472       .  S
C211        O825   1.282       .  A
C211        C275   1.479       .  S
C212        O826   1.281       .  A
C212        C265   1.483       .  S
O213       Ni221   1.921       .  S
O213        C535   1.283       .  A
O214        C536   1.281       .  A
O215       Ni221   1.917       .  S
O217        C538   1.280   1_545  A
O218       Ni222   1.917       .  S
O218        C537   1.281   1_545  A
O219       Ni222   1.920   1_556  S
O219        C224   1.283   1_545  A
O220        C223   1.282   1_545  A
Ni221      Ni378   2.389       .  S
Ni222      Ni377   2.388   1_545  S
C223        O525   1.282       .  A
C223        C564   1.481       .  S
C224        O526   1.281       .  A
C224        C554   1.483       .  S
C225        O530   1.280       .  A
C225        C301   1.467       .  S
C226        O529   1.281       .  A
C226        C297   1.467       .  S
O227       Ni235   1.918       .  S
O227        C237   1.282       .  A
O228       Ni235   1.918       .  S
O228        C238   1.282       .  A
O229       Ni235   1.920       .  S
O229        C239   1.281       .  A
O230       Ni235   1.917       .  S
O230        C240   1.280       .  A
O231       Ni236   1.920       .  S
O231        C552   1.282   1_545  A
O232       Ni236   1.919       .  S
O232        C551   1.280       .  A
O233       Ni236   1.919       .  S
O233        C550   1.282   1_545  A
O234       Ni236   1.911       .  S
O234        C549   1.280   1_545  A
Ni235      Ni548   2.388       .  S
Ni236      Ni547   2.389   1_545  S
C237        O546   1.282       .  A
C237        C245   1.482       .  S
C238        O545   1.282       .  A
C238        C255   1.482       .  S
C239        O544   1.280       .  A
C239        C286   1.470       .  S
C240        O543   1.281       .  A
C240        C282   1.470       .  S
C241        C554   1.405   1_545  A
C241        C246   1.397       .  A
C241        H247   1.083       .  S
C242        C536   1.483       .  S
C242        C553   1.406       .  A
C242        C243   1.406       .  A
C243        C244   1.397       .  A
C243        H248   1.083       .  S
C244        C245   1.405       .  A
C244        H249   1.083       .  S
C245        C558   1.406       .  A
C246        C557   1.407   1_545  A
C246        H250   1.083       .  S
C251        C564   1.405   1_545  A
C251        C256   1.398       .  A
C251        H257   1.083       .  S
C252        C535   1.482       .  S
C252        C563   1.406       .  A
C252        C253   1.406       .  A
C253        C254   1.398       .  A
C253        H258   1.083       .  S
C254        C255   1.406       .  A
C254        H259   1.083       .  S
C255        C568   1.406       .  A
C256        C567   1.406   1_545  A
C256        H260   1.083       .  S
C261        C886   1.406   1_455  A
C261        C266   1.396       .  A
C261        H267   1.083       .  S
C262        C819   1.483       .  S
C262        C885   1.405       .  A
C262        C263   1.407       .  A
C263        C264   1.402       .  A
C263        H268   1.083       .  S
C264        C265   1.407       .  A
C264        H269   1.083       .  S
C265        C890   1.405       .  A
C266        C889   1.404   1_455  A
C266        H270   1.083       .  S
C271        C896   1.404       .  A
C271        C276   1.398       .  A
C271        H277   1.083       .  S
C272        C820   1.480       .  S
C272        C895   1.405       .  A
C272        C273   1.406       .  A
C273        C274   1.395       .  A
C273        H278   1.083       .  S
C274        C275   1.404       .  A
C274        H279   1.083       .  S
C275        C900   1.406       .  A
C276        C899   1.407       .  A
C276        H280   1.083       .  S
C281        C282   1.340       .  D
C281        H595   1.087       .  S
C282        H284   1.087       .  S
H283        C593   1.087       .  S
C285        C286   1.341       .  D
C285        H287   1.087       .  S
C286        H600   1.087       .  S
H288        C598   1.087       .  S
C289        C290   1.340       .  D
C289        H915   1.087       .  S
C290        H292   1.087       .  S
H291        C913   1.086       .  S
C293        C294   1.341       .  D
C293        H919   1.087       .  S
C294        H296   1.087       .  S
H295        C917   1.087       .  S
C297        C298   1.339       .  D
C297        H611   1.087       .  S
H299        C609   1.087       .  S
C301        C614   1.340   1_556  D
C301        H303   1.086       .  S
C302        C613   1.339   1_546  D
C305        C306   1.341   1_654  D
C305        H931   1.086       .  S
H307        C929   1.087       .  S
C309        C934   1.342       .  D
C309        H935   1.087       .  S
C310        C933   1.341   1_654  D
C310        H780   1.087       .  S
H311        C933   1.086       .  S
H312        C778   1.087       .  S
O313        C479   1.281       .  A
O314       Ni945   1.922       .  S
O314        C480   1.281       .  A
O315       Ni321   1.922       .  S
O315        C949   1.281       .  A
O316       Ni633   1.918   1_565  S
O316        C950   1.280       .  A
O317       Ni634   1.924   1_665  S
O317        C482   1.281       .  A
O318       Ni322   1.916       .  S
O318        C481   1.281   1_554  A
O320       Ni946   1.921   1_455  S
Ni321       O938   1.925   1_455  S
Ni321       O628   1.913       .  S
Ni321     Ni1102   2.392   1_455  S
Ni322       O629   1.927       .  S
Ni322       O944   1.916       .  S
Ni322     Ni1101   2.391   1_554  S
C323        O469   1.279       .  A
C323        C454   1.470       .  S
C324        O470   1.281   1_554  A
C324        C614   1.467       .  S
C325        O939   1.282       .  A
C325        O474   1.280       .  A
C325        C465   1.474       .  S
C326        O940   1.280       .  A
C326        O473   1.281       .  A
C326        C461   1.468       .  S
O327       Ni959   1.924   1_565  S
O327        C961   1.281       .  A
O328        C338   1.282       .  A
O329       Ni335   1.923       .  S
O329        C339   1.282   1_545  A
O330       Ni647   1.918   1_455  S
O331       Ni648   1.919       .  S
O331        C340   1.282   1_565  A
O332       Ni336   1.910       .  S
O333       Ni960   1.924       .  S
O333        C962   1.281   1_455  A
O334        C337   1.280       .  A
Ni335       O951   1.925   1_545  S
Ni335       O642   1.912       .  S
Ni336       O643   1.922       .  S
Ni336       O957   1.912       .  S
C337        O951   1.282       .  A
C337        C446   1.471       .  S
C338        O957   1.279       .  A
C338        C449   1.469       .  S
C339        C441   1.467       .  S
C340        C437   1.469       .  S
O341       Ni349   1.915       .  S
O341        C351   1.281   1_455  A
O342       Ni505   1.922   1_554  S
O342        C352   1.282       .  A
O343       Ni349   1.920       .  S
O343        C353   1.282   1_455  A
O344       Ni505   1.918       .  S
O344        C354   1.280       .  A
O345       Ni506   1.918       .  S
O345       C1134   1.281       .  A
O346       Ni350   1.926       .  S
O346       C1133   1.283       .  A
O347       Ni350   1.913       .  S
O347        C976   1.281       .  A
O348       Ni506   1.922       .  S
O348        C975   1.283       .  A
Ni349       O498   1.916       .  S
Ni349       O500   1.918       .  S
Ni349     Ni1130   2.388   1_455  S
Ni350       O501   1.926       .  S
Ni350       O504   1.901   1_554  S
Ni350     Ni1129   2.388       .  S
C351        O972   1.282       .  A
C351       C1042   1.481       .  S
C352        O971   1.281   1_455  A
C352       C1052   1.480       .  S
C353       O1126   1.279       .  A
C353        C466   1.469       .  S
C354       O1125   1.281   1_455  A
C354        C618   1.471       .  S
O355       Ni363   1.915       .  S
O355        C989   1.280   1_455  A
O356       Ni363   1.915       .  S
O356        C990   1.279       .  A
O357       Ni363   1.926       .  S
O357        C991   1.283       .  A
O358       Ni363   1.914       .  S
O358        C992   1.281   1_455  A
O359       Ni364   1.920       .  S
O359        C368   1.282       .  A
O360       Ni364   1.912       .  S
O360        C367   1.281       .  A
O361       Ni364   1.915       .  S
O361        C366   1.281       .  A
O362       Ni364   1.914       .  S
O362        C365   1.279       .  A
Ni363      Ni988   2.390   1_455  S
Ni364      Ni987   2.389       .  S
C365        O979   1.281       .  A
C365        C445   1.468       .  S
C366        O980   1.281       .  A
C366        C450   1.473       .  S
C367        O981   1.283       .  A
C367        C431   1.483       .  S
C368        O982   1.281       .  A
C368        C421   1.480       .  S
O369       Ni377   1.915       .  S
O370       Ni533   1.915       .  S
O371       Ni377   1.917       .  S
O371        C537   1.280       .  A
O372       Ni533   1.926       .  S
O372        C538   1.282       .  A
O373       Ni534   1.914       .  S
O374       Ni378   1.917       .  S
O375       Ni378   1.924       .  S
O375        C380   1.284       .  A
O376       Ni534   1.911       .  S
O376        C379   1.281       .  A
Ni377       O526   1.917   1_554  S
Ni377       O528   1.919       .  S
Ni378       O529   1.915       .  S
Ni378       O532   1.914       .  S
C381        O527   1.281       .  A
C381        C457   1.474       .  S
C382        O528   1.282   1_545  A
C382        C453   1.470       .  S
O383       Ni391   1.923       .  S
O383        C393   1.283       .  A
O384       Ni391   1.913       .  S
O384        C394   1.281       .  A
O385       Ni391   1.914       .  S
O385        C395   1.281   1_565  A
O386       Ni391   1.916       .  S
O386        C396   1.279       .  A
O387       Ni392   1.917       .  S
O388       Ni392   1.915       .  S
O389       Ni392   1.913       .  S
O390       Ni392   1.914       .  S
C393        C401   1.481       .  S
C394        C411   1.481       .  S
C395        C442   1.471       .  S
C396        C438   1.469       .  S
C397        C402   1.398       .  A
C397        H403   1.083       .  S
C398        C399   1.406       .  A
C399        C400   1.399       .  A
C399        H404   1.083       .  S
C400        C401   1.405       .  A
C400        H405   1.083       .  S
C402        H406   1.083       .  S
C407        C412   1.395       .  A
C407        H413   1.083       .  S
C408        C409   1.405       .  A
C409        C410   1.396       .  A
C409        H414   1.083       .  S
C410        C411   1.406       .  A
C410        H415   1.083       .  S
C412        H416   1.083       .  S
C417       C1042   1.406   1_455  A
C417        C422   1.397       .  A
C417        H423   1.083       .  S
C418        C975   1.480       .  S
C418       C1041   1.405       .  A
C418        C419   1.406       .  A
C419        C420   1.400       .  A
C419        H424   1.083       .  S
C420        C421   1.406       .  A
C420        H425   1.083       .  S
C421       C1046   1.405       .  A
C422       C1045   1.405   1_455  A
C422        H426   1.083       .  S
C427       C1052   1.406       .  A
C427        C432   1.401       .  A
C427        H433   1.083       .  S
C428        C976   1.483       .  S
C428       C1051   1.407       .  A
C428        C429   1.405       .  A
C429        C430   1.395       .  A
C429        H434   1.083       .  S
C430        C431   1.405       .  A
C430        H435   1.083       .  S
C431       C1056   1.407       .  A
C432       C1055   1.406       .  A
C432        H436   1.083       .  S
C437        C438   1.340   1_545  D
C438        H440   1.086       .  S
C441        C442   1.340   1_565  D
C441        H443   1.087       .  S
C445        C446   1.341       .  D
C445       H1071   1.087       .  S
C446        H448   1.087       .  S
H447       C1069   1.087       .  S
C449        C450   1.341       .  D
C449       H1075   1.087       .  S
C450        H452   1.087       .  S
H451       C1073   1.087       .  S
C453        C454   1.340   1_544  D
C454        H612   1.087       .  S
H456        C610   1.087       .  S
C457        H459   1.087       .  S
C458        C480   1.470       .  S
C458        H616   1.087       .  S
H460        C614   1.087       .  S
C461        C462   1.340   1_655  D
C461       H1087   1.087       .  S
C462        C510   1.469       .  S
C462        H620   1.087       .  S
H463       C1085   1.087       .  S
H464        C618   1.087       .  S
C465       C1090   1.342       .  D
C465       H1091   1.087       .  S
C466       C1089   1.340   1_655  D
C466       H1248   1.087       .  S
H467       C1089   1.087       .  S
H468       C1246   1.087       .  S
O470      Ni1101   1.915       .  S
O471       Ni477   1.922       .  S
O471       C1105   1.281   1_655  A
O472       Ni789   1.920       .  S
O472       C1106   1.280       .  A
O473       Ni790   1.917       .  S
O474       Ni478   1.912       .  S
O476      Ni1102   1.918   1_455  S
Ni477      O1094   1.921       .  S
Ni477       O784   1.909       .  S
Ni477      Ni946   2.393   1_556  S
Ni478       O785   1.924       .  S
Ni478      O1100   1.923       .  S
Ni478      Ni945   2.391       .  S
C479        C610   1.477       .  S
C481       O1095   1.282       .  A
C481        C621   1.477       .  S
C482       O1096   1.280   1_554  A
C482        C617   1.471       .  S
O483      Ni1115   1.924   1_565  S
O483       C1117   1.282       .  A
O484        C494   1.283       .  A
O485       Ni491   1.919   1_565  S
O485        C495   1.281       .  A
O486       Ni803   1.917   1_455  S
O487       Ni804   1.923       .  S
O487        C496   1.282   1_565  A
O488       Ni492   1.911       .  S
O489      Ni1116   1.924       .  S
O489       C1118   1.281       .  A
O490        C493   1.280       .  A
Ni491      O1107   1.919   1_545  S
Ni491       O798   1.918       .  S
Ni492       O799   1.922       .  S
Ni492      O1113   1.915       .  S
C493       O1107   1.281       .  A
C493        C602   1.470       .  S
C494       O1113   1.279       .  A
C494        C605   1.472       .  S
C495        C597   1.473       .  S
C496        C593   1.473       .  S
O497       Ni505   1.911       .  S
O497        C507   1.281   1_455  A
O498        C508   1.281   1_455  A
O499       Ni505   1.919       .  S
O499        C509   1.281   1_456  A
O500        C510   1.280       .  A
O501        C978   1.283       .  A
O502       Ni506   1.918       .  S
O502        C977   1.280       .  A
O503       Ni506   1.925       .  S
O503       C1132   1.283       .  A
O504       C1131   1.278       .  A
Ni505      Ni974   2.389   1_456  S
Ni506      Ni973   2.388       .  S
C507       O1128   1.283       .  A
C507       C1198   1.481       .  S
C508       O1127   1.283       .  A
C508       C1208   1.481       .  S
C509        O970   1.280       .  A
C509        C622   1.470       .  S
C510        O969   1.281   1_455  A
O511       Ni519   1.916       .  S
O511       C1145   1.280   1_455  A
O512       Ni519   1.916       .  S
O512       C1146   1.279       .  A
O513       Ni519   1.922       .  S
O513       C1147   1.283   1_455  A
O514       Ni519   1.910       .  S
O514       C1148   1.281   1_455  A
O515       Ni520   1.922       .  S
O515        C524   1.284       .  A
O516       Ni520   1.925       .  S
O516        C523   1.283       .  A
O517       Ni520   1.919       .  S
O517        C522   1.281       .  A
O518       Ni520   1.917       .  S
O518        C521   1.280       .  A
Ni519     Ni1144   2.390   1_455  S
Ni520     Ni1143   2.387       .  S
C521       O1135   1.281       .  A
C521        C601   1.471       .  S
C522       O1136   1.280       .  A
C522        C606   1.473       .  S
C523       O1137   1.281       .  A
C523        C587   1.484       .  S
C524       O1138   1.280       .  A
C524        C577   1.482       .  S
O525       Ni533   1.916       .  S
O527       Ni533   1.922       .  S
O530       Ni534   1.913   1_556  S
O531       Ni534   1.923   1_556  S
O531        C536   1.283       .  A
O532        C535   1.281       .  A
C537        C613   1.470       .  S
C538        C609   1.473   1_565  S
O539       Ni547   1.927       .  S
O539        C549   1.284       .  A
O540       Ni547   1.914       .  S
O540        C550   1.281       .  A
O541       Ni547   1.920       .  S
O541        C551   1.281   1_565  A
O542       Ni547   1.920       .  S
O542        C552   1.280       .  A
O543       Ni548   1.917       .  S
O544       Ni548   1.917       .  S
O545       Ni548   1.918       .  S
O546       Ni548   1.919       .  S
C549        C557   1.483       .  S
C550        C567   1.481       .  S
C551        C598   1.472       .  S
C552        C594   1.475       .  S
C553        C558   1.400       .  A
C553        H559   1.083       .  S
C554        C555   1.407       .  A
C555        C556   1.400       .  A
C555        H560   1.083       .  S
C556        C557   1.405       .  A
C556        H561   1.083       .  S
C558        H562   1.083       .  S
C563        C568   1.398       .  A
C563        H569   1.083       .  S
C564        C565   1.405       .  A
C565        C566   1.397       .  A
C565        H570   1.083       .  S
C566        C567   1.406       .  A
C566        H571   1.083       .  S
C568        H572   1.083       .  S
C573       C1198   1.405   1_455  A
C573        C578   1.395       .  A
C573        H579   1.083       .  S
C574       C1131   1.483       .  S
C574       C1197   1.404       .  A
C574        C575   1.408       .  A
C575        C576   1.395       .  A
C575        H580   1.083       .  S
C576        C577   1.403       .  A
C576        H581   1.083       .  S
C577       C1202   1.409       .  A
C578       C1201   1.405   1_455  A
C578        H582   1.083       .  S
C583       C1208   1.406   1_455  A
C583        C588   1.399       .  A
C583        H589   1.083       .  S
C584       C1132   1.483       .  S
C584       C1207   1.405       .  A
C584        C585   1.407       .  A
C585        C586   1.403       .  A
C585        H590   1.083       .  S
C586        C587   1.407       .  A
C586        H591   1.083       .  S
C587       C1212   1.405       .  A
C588       C1211   1.405   1_455  A
C588        H592   1.083       .  S
C593        C594   1.341   1_545  D
C594        H596   1.087       .  S
C597        C598   1.342   1_565  D
C597        H599   1.087       .  S
C601        C602   1.341       .  D
C601       H1227   1.087       .  S
C602        H604   1.087       .  S
H603       C1225   1.087       .  S
C605        C606   1.341       .  D
C605       H1231   1.087       .  S
C606        H608   1.087       .  S
H607       C1229   1.087       .  S
C609        C610   1.342   1_545  D
C613        H615   1.088       .  S
C617        C618   1.341   1_654  D
C617       H1243   1.087       .  S
H619       C1241   1.087       .  S
C621       C1246   1.342   1_556  D
C621       H1247   1.087       .  S
C622       C1245   1.340   1_654  D
C622       H1092   1.087       .  S
H623       C1245   1.087       .  S
H624       C1090   1.087       .  S
O625       Ni945   1.913       .  S
O625        C791   1.280       .  A
O626        C792   1.281       .  A
O627       Ni633   1.919       .  S
O629        C794   1.282       .  A
O630       Ni634   1.911       .  S
O630        C793   1.280   1_554  A
O631       Ni946   1.912       .  S
O631        C948   1.279       .  A
O632        C947   1.282   1_554  A
Ni633       O937   1.921   1_545  S
Ni634       O943   1.911   1_455  S
C635        O781   1.280       .  A
C635        O944   1.281   1_556  A
C635        C766   1.467       .  S
C636        O782   1.283   1_554  A
C636        O943   1.278       .  A
C636        C926   1.471       .  S
C637        O786   1.282       .  A
C637        C777   1.471       .  S
C638        O785   1.282       .  A
C638        C773   1.474       .  S
O640       Ni959   1.916   1_655  S
O640        C650   1.281   1_655  A
O641       Ni647   1.915       .  S
O641        C651   1.281       .  A
O642        C964   1.279       .  A
O643        C652   1.281       .  A
O644       Ni648   1.920   1_655  S
O644        C963   1.281       .  A
O646       Ni960   1.912       .  S
O646        C649   1.281       .  A
Ni647       O952   1.911       .  S
Ni647      Ni960   2.391   1_655  S
Ni648       O958   1.909       .  S
Ni648      Ni959   2.391   1_565  S
C649        C758   1.471   1_455  S
C650        C761   1.471       .  S
C651        O956   1.280       .  A
C651        C753   1.468       .  S
C652        O954   1.280       .  A
C652        C749   1.469       .  S
O653       Ni661   1.915       .  S
O653        C663   1.282       .  A
O654       Ni817   1.921   1_554  S
O654        C664   1.282       .  A
O655       Ni661   1.919       .  S
O655        C665   1.282       .  A
O656       Ni817   1.919       .  S
O656        C666   1.280       .  A
O657       Ni818   1.920       .  S
O658       Ni662   1.917       .  S
O659       Ni662   1.912       .  S
O660       Ni818   1.920       .  S
Ni661       O810   1.925       .  S
Ni661       O812   1.919       .  S
Ni662       O813   1.917       .  S
Ni662       O816   1.922   1_554  S
C665        C778   1.474       .  S
C666        C930   1.472       .  S
O667       Ni675   1.914       .  S
O668       Ni675   1.915       .  S
O669       Ni675   1.923       .  S
O670       Ni675   1.914       .  S
O671       Ni676   1.910       .  S
O671        C680   1.280   1_655  A
O672       Ni676   1.921       .  S
O672        C679   1.283   1_655  A
O673       Ni676   1.919       .  S
O673        C678   1.280       .  A
O674       Ni676   1.918       .  S
O674        C677   1.281   1_655  A
C677        C757   1.468       .  S
C678        C762   1.471       .  S
C679        C743   1.480       .  S
C680        C733   1.481       .  S
O681       Ni689   1.923       .  S
O681       C1003   1.283       .  A
O682       Ni845   1.910       .  S
O682       C1004   1.281       .  A
O683       Ni689   1.916   1_556  S
O683        C849   1.280       .  A
O684       Ni845   1.916       .  S
O684        C850   1.279       .  A
O685       Ni846   1.923   1_554  S
O685       C1006   1.281       .  A
O686       Ni690   1.924       .  S
O686       C1005   1.282   1_545  A
O687       Ni690   1.916       .  S
O687        C692   1.282   1_545  A
O688       Ni846   1.911   1_554  S
O688        C691   1.280       .  A
Ni689       O838   1.911   1_554  S
Ni689       O840   1.916       .  S
Ni689     Ni1158   2.390       .  S
Ni690       O841   1.920       .  S
Ni690       O844   1.916       .  S
Ni690     Ni1157   2.387   1_545  S
C691        O993   1.284   1_545  A
C691       C1032   1.482       .  S
C692        O994   1.282       .  A
C692       C1022   1.482       .  S
C693        O839   1.280       .  A
C693        O998   1.280       .  A
C693        C769   1.468       .  S
C694        O840   1.281       .  A
C694        O997   1.279       .  A
C694        C765   1.468       .  S
O695       Ni703   1.915       .  S
O695        C705   1.282       .  A
O696       Ni703   1.917       .  S
O696        C706   1.282       .  A
O697       Ni703   1.915       .  S
O697        C707   1.281       .  A
O698       Ni703   1.916       .  S
O698        C708   1.280       .  A
O699       Ni704   1.913       .  S
O699       C1020   1.280   1_545  A
O700       Ni704   1.913       .  S
O700       C1019   1.279       .  A
O701       Ni704   1.920       .  S
O701       C1018   1.283   1_545  A
O702       Ni704   1.911       .  S
O702       C1017   1.281   1_545  A
Ni703     Ni1016   2.388       .  S
Ni704     Ni1015   2.389   1_545  S
C705       O1014   1.282       .  A
C705        C713   1.481       .  S
C706       O1013   1.282       .  A
C706        C723   1.481       .  S
C707       O1012   1.280       .  A
C707        C754   1.469       .  S
C708       O1011   1.281       .  A
C708        C750   1.468       .  S
C709       C1022   1.405   1_545  A
C709        C714   1.396       .  A
C709        H715   1.083       .  S
C710       C1004   1.481       .  S
C710       C1021   1.406       .  A
C710        C711   1.405       .  A
C711        C712   1.395       .  A
C711        H716   1.083       .  S
C712        C713   1.405       .  A
C712        H717   1.083       .  S
C713       C1026   1.406       .  A
C714       C1025   1.406   1_545  A
C714        H718   1.083       .  S
C719       C1032   1.406       .  A
C719        C724   1.397       .  A
C719        H725   1.083       .  S
C720       C1003   1.481       .  S
C720       C1031   1.406       .  A
C720        C721   1.406       .  A
C721        C722   1.400       .  A
C721        H726   1.083       .  S
C722        C723   1.407       .  A
C722        H727   1.083       .  S
C723       C1036   1.405       .  A
C724       C1035   1.405   1_545  A
C724        H728   1.083       .  S
C729        C734   1.397       .  A
C729        H735   1.083       .  S
C730        C731   1.405   1_455  A
C731        C732   1.397       .  A
C731        H736   1.083       .  S
C732        C733   1.406   1_655  A
C732        H737   1.083       .  S
C734        H738   1.083       .  S
C739        C744   1.400       .  A
C739        H745   1.083       .  S
C740        C741   1.406   1_455  A
C741        C742   1.398       .  A
C741        H746   1.083       .  S
C742        C743   1.405   1_655  A
C742        H747   1.083       .  S
C744        H748   1.083       .  S
C749        C750   1.340       .  D
C749       H1063   1.087       .  S
C750        H752   1.087       .  S
H751       C1061   1.087       .  S
C753        C754   1.340       .  D
C753        H755   1.087       .  S
C754       H1068   1.087       .  S
H756       C1066   1.087       .  S
C757        C758   1.340   1_455  D
C758        H760   1.087       .  S
C761        C762   1.341   1_455  D
C762        H764   1.087       .  S
C765        C766   1.339   1_554  D
C765       H1079   1.087       .  S
C766        H924   1.087       .  S
H767       C1077   1.087       .  S
H768        C922   1.087       .  S
C769       C1082   1.342       .  D
C769        H771   1.087       .  S
C770        C792   1.476       .  S
C770       C1081   1.343   1_545  D
C770        H928   1.087       .  S
H772        C926   1.087       .  S
C773        C774   1.342       .  D
C774        C822   1.472       .  S
C774        H932   1.087       .  S
H776        C930   1.087       .  S
O781      Ni1101   1.915       .  S
O783       Ni789   1.920   1_545  S
O786       Ni790   1.921   1_445  S
O787      Ni1102   1.908       .  S
O787       C1104   1.279       .  A
O788       C1103   1.282   1_545  A
Ni789      O1093   1.919       .  S
Ni790      O1099   1.923   1_565  S
C791       O1100   1.281       .  A
C791        C922   1.471       .  S
C792       O1099   1.282       .  A
C793        C933   1.468       .  S
C794        C929   1.474       .  S
O796      Ni1115   1.912       .  S
O796        C806   1.280   1_655  A
O797       Ni803   1.917       .  S
O797        C807   1.281       .  A
O798       C1120   1.281       .  A
O799        C808   1.281       .  A
O800       Ni804   1.923   1_655  S
O800       C1119   1.281   1_565  A
O802      Ni1116   1.913   1_455  S
O802        C805   1.280   1_455  A
Ni803      O1108   1.912       .  S
Ni803     Ni1116   2.391       .  S
Ni804      O1114   1.911       .  S
Ni804     Ni1115   2.390   1_465  S
C805        C914   1.472       .  S
C806        C917   1.471       .  S
C807       O1112   1.280       .  A
C807        C909   1.469       .  S
C808       O1110   1.280       .  A
C808        C905   1.467       .  S
O809       Ni817   1.911       .  S
O809        C819   1.281       .  A
O810        C820   1.283       .  A
O811       Ni817   1.921       .  S
O811        C821   1.282       .  A
O812        C822   1.280       .  A
O814       Ni818   1.920       .  S
O815       Ni818   1.909       .  S
C821        C934   1.475       .  S
O823       Ni831   1.919       .  S
O824       Ni831   1.918       .  S
O825       Ni831   1.918       .  S
O826       Ni831   1.908       .  S
O827       Ni832   1.912       .  S
O827        C836   1.281   1_655  A
O828       Ni832   1.924       .  S
O828        C835   1.284   1_655  A
O829       Ni832   1.916       .  S
O829        C834   1.279       .  A
O830       Ni832   1.915       .  S
O830        C833   1.281   1_655  A
C833        C913   1.470       .  S
C834        C918   1.469       .  S
C835        C899   1.481       .  S
C836        C889   1.480   1_455  S
O837       Ni845   1.923       .  S
O837       C1159   1.283       .  A
O838       C1160   1.281       .  A
O839       Ni845   1.915       .  S
O841       C1162   1.281       .  A
O842       Ni846   1.924       .  S
O842       C1161   1.283   1_545  A
O843       Ni846   1.919       .  S
O843        C848   1.282       .  A
O844        C847   1.281       .  A
Ni845     Ni1002   2.389       .  S
Ni846     Ni1001   2.389   1_545  S
C847       O1149   1.283   1_545  A
C847       C1188   1.481       .  S
C848       O1150   1.281   1_545  A
C848       C1178   1.480       .  S
C849       O1154   1.281   1_556  A
C849        C925   1.470       .  S
C850       O1153   1.282       .  A
C850        C921   1.470       .  S
O851       Ni859   1.917       .  S
O851        C861   1.282       .  A
O852       Ni859   1.918       .  S
O852        C862   1.282       .  A
O853       Ni859   1.917       .  S
O853        C863   1.281       .  A
O854       Ni859   1.916       .  S
O854        C864   1.280       .  A
O855       Ni860   1.921       .  S
O855       C1176   1.282       .  A
O856       Ni860   1.922       .  S
O856       C1175   1.281       .  A
O857       Ni860   1.922       .  S
O857       C1174   1.283       .  A
O858       Ni860   1.922       .  S
O858       C1173   1.283       .  A
Ni859     Ni1172   2.389       .  S
Ni860     Ni1171   2.387   1_545  S
C861       O1170   1.281       .  A
C861        C869   1.480       .  S
C862       O1169   1.282       .  A
C862        C879   1.482       .  S
C863       O1168   1.279       .  A
C863        C910   1.469       .  S
C864       O1167   1.281       .  A
C864        C906   1.469       .  S
C865       C1178   1.406       .  A
C865        C870   1.400       .  A
C865        H871   1.083       .  S
C866       C1160   1.481       .  S
C866       C1177   1.405       .  A
C866        C867   1.406       .  A
C867        C868   1.397       .  A
C867        H872   1.083       .  S
C868        C869   1.405       .  A
C868        H873   1.083       .  S
C869       C1182   1.406       .  A
C870       C1181   1.406       .  A
C870        H874   1.083       .  S
C875       C1188   1.407       .  A
C875        C880   1.400       .  A
C875        H881   1.083       .  S
C876       C1159   1.482       .  S
C876       C1187   1.406       .  A
C876        C877   1.406       .  A
C877        C878   1.400       .  A
C877        H882   1.083       .  S
C878        C879   1.406       .  A
C878        H883   1.083       .  S
C879       C1192   1.405       .  A
C880       C1191   1.406       .  A
C880        H884   1.083       .  S
C885        C890   1.394       .  A
C885        H891   1.083       .  S
C886        C887   1.405       .  A
C887        C888   1.398       .  A
C887        H892   1.083       .  S
C888        C889   1.406       .  A
C888        H893   1.083       .  S
C890        H894   1.083       .  S
C895        C900   1.400       .  A
C895        H901   1.083       .  S
C896        C897   1.407   1_455  A
C897        C898   1.397       .  A
C897        H902   1.083       .  S
C898        C899   1.404   1_655  A
C898        H903   1.083       .  S
C900        H904   1.083       .  S
C905        C906   1.340       .  D
C905       H1219   1.087       .  S
C906        H908   1.088       .  S
H907       C1217   1.087       .  S
C909        C910   1.340       .  D
C909        H911   1.087       .  S
C910       H1224   1.087       .  S
H912       C1222   1.087       .  S
C913        C914   1.342   1_455  D
C914        H916   1.087       .  S
C917        C918   1.340   1_455  D
C918        H920   1.087       .  S
C921        C922   1.340       .  D
C921       H1235   1.087       .  S
H923       C1233   1.087       .  S
C925       C1238   1.339   1_556  D
C925        H927   1.087       .  S
C926       C1237   1.339   1_544  D
C929        C930   1.342   1_554  D
O937       C1103   1.281       .  A
O938       C1104   1.282       .  A
O939       Ni945   1.925       .  S
O941       C1106   1.282   1_554  A
O942       Ni946   1.915   1_455  S
O942       C1105   1.281   1_554  A
C947       O1093   1.280       .  A
C947       C1078   1.473       .  S
C948       O1094   1.282   1_554  A
C948       C1238   1.469       .  S
C949       O1098   1.281   1_455  A
C949       C1089   1.471       .  S
C950       O1097   1.282       .  A
C950       C1085   1.472       .  S
O952        C962   1.280       .  A
O953       Ni959   1.914   1_665  S
O953        C963   1.281       .  A
O955        C964   1.282       .  A
O956       Ni960   1.917   1_655  S
O958        C961   1.279       .  A
C961       C1070   1.469       .  S
C962       C1073   1.472       .  S
C963       C1065   1.471       .  S
C964       C1061   1.467       .  S
O965       Ni973   1.910       .  S
O965        C975   1.281       .  A
O966      Ni1129   1.924       .  S
O966        C976   1.283       .  A
O967       Ni973   1.920       .  S
O967        C977   1.281       .  A
O968      Ni1129   1.915       .  S
O968        C978   1.279       .  A
O969      Ni1130   1.915       .  S
O970       Ni974   1.917       .  S
O971       Ni974   1.911       .  S
O972      Ni1130   1.919       .  S
Ni973      O1122   1.912       .  S
Ni973      O1124   1.920       .  S
Ni974      O1125   1.919   1_554  S
Ni974      O1128   1.923   1_554  S
C977       C1090   1.470       .  S
C978       C1242   1.473       .  S
O979       Ni987   1.921       .  S
O980       Ni987   1.920       .  S
O981       Ni987   1.925       .  S
O982       Ni987   1.911       .  S
O983       Ni988   1.919       .  S
O983        C992   1.282       .  A
O984       Ni988   1.907       .  S
O984        C991   1.280   1_655  A
O985       Ni988   1.920       .  S
O985        C990   1.281   1_655  A
O986       Ni988   1.918       .  S
O986        C989   1.280       .  A
C989       C1069   1.467       .  S
C990       C1074   1.467       .  S
C991       C1055   1.481       .  S
C992       C1045   1.481       .  S
O993      Ni1001   1.925   1_554  S
O994      Ni1157   1.920       .  S
O995      Ni1001   1.914       .  S
O995       C1161   1.279       .  A
O996      Ni1157   1.922       .  S
O996       C1162   1.282   1_565  A
O997      Ni1158   1.916       .  S
O998      Ni1002   1.919       .  S
O999      Ni1002   1.922       .  S
O999       C1004   1.283       .  A
O1000     Ni1158   1.911       .  S
O1000      C1003   1.281       .  A
Ni1001     O1150   1.913       .  S
Ni1001     O1152   1.917       .  S
Ni1002     O1153   1.919       .  S
Ni1002     O1156   1.912       .  S
C1005      O1151   1.281       .  A
C1005      C1081   1.476       .  S
C1006      O1152   1.281   1_544  A
C1006      C1077   1.475       .  S
O1007     Ni1015   1.926       .  S
O1007      C1017   1.284       .  A
O1008     Ni1015   1.915       .  S
O1008      C1018   1.281       .  A
O1009     Ni1015   1.920       .  S
O1009      C1019   1.282   1_565  A
O1010     Ni1015   1.919       .  S
O1010      C1020   1.280       .  A
O1011     Ni1016   1.917       .  S
O1012     Ni1016   1.917       .  S
O1013     Ni1016   1.916       .  S
O1014     Ni1016   1.918       .  S
C1017      C1025   1.483       .  S
C1018      C1035   1.482       .  S
C1019      C1066   1.468       .  S
C1020      C1062   1.470       .  S
C1021      C1026   1.399       .  A
C1021      H1027   1.083       .  S
C1022      C1023   1.407       .  A
C1023      C1024   1.401       .  A
C1023      H1028   1.083       .  S
C1024      C1025   1.406       .  A
C1024      H1029   1.083       .  S
C1026      H1030   1.083       .  S
C1031      C1036   1.396       .  A
C1031      H1037   1.083       .  S
C1032      C1033   1.405   1_545  A
C1033      C1034   1.400       .  A
C1033      H1038   1.083       .  S
C1034      C1035   1.407       .  A
C1034      H1039   1.083       .  S
C1036      H1040   1.083       .  S
C1041      C1046   1.395       .  A
C1041      H1047   1.083       .  S
C1042      C1043   1.406       .  A
C1043      C1044   1.399       .  A
C1043      H1048   1.083       .  S
C1044      C1045   1.406       .  A
C1044      H1049   1.083       .  S
C1046      H1050   1.083       .  S
C1051      C1056   1.402       .  A
C1051      H1057   1.083       .  S
C1052      C1053   1.405   1_455  A
C1053      C1054   1.394       .  A
C1053      H1058   1.083       .  S
C1054      C1055   1.405   1_655  A
C1054      H1059   1.083       .  S
C1056      H1060   1.083       .  S
C1061      C1062   1.340   1_545  D
C1062      H1064   1.087       .  S
C1065      C1066   1.340   1_565  D
C1065      H1067   1.087       .  S
C1069      C1070   1.341   1_655  D
C1070      H1072   1.087       .  S
C1073      C1074   1.340   1_655  D
C1074      H1076   1.087       .  S
C1077      C1078   1.343   1_544  D
C1078      H1236   1.087       .  S
H1080      C1234   1.087       .  S
C1081      H1083   1.087       .  S
C1082      C1104   1.471       .  S
C1082      H1240   1.087       .  S
H1084      C1238   1.087       .  S
C1085      C1086   1.342       .  D
C1086      C1134   1.472       .  S
C1086      H1244   1.087       .  S
H1088      C1242   1.087       .  S
O1095     Ni1101   1.926       .  S
O1098     Ni1102   1.913       .  S
C1103      C1234   1.474       .  S
C1105      C1245   1.470       .  S
C1106      C1241   1.475       .  S
O1108      C1118   1.280       .  A
O1109     Ni1115   1.919       .  S
O1109      C1119   1.282       .  A
O1111      C1120   1.281       .  A
O1112     Ni1116   1.917       .  S
O1114      C1117   1.280   1_455  A
C1117      C1226   1.471   1_655  S
C1118      C1229   1.471       .  S
C1119      C1221   1.474   1_545  S
C1120      C1217   1.472       .  S
O1121     Ni1129   1.934   1_556  S
O1121      C1131   1.286       .  A
O1122      C1132   1.281       .  A
O1123     Ni1129   1.916       .  S
O1123      C1133   1.279       .  A
O1124      C1134   1.280       .  A
O1126     Ni1130   1.915       .  S
O1127     Ni1130   1.919       .  S
C1133      C1246   1.473       .  S
O1135     Ni1143   1.919       .  S
O1136     Ni1143   1.920       .  S
O1137     Ni1143   1.913       .  S
O1138     Ni1143   1.914       .  S
O1139     Ni1144   1.924       .  S
O1139      C1148   1.283       .  A
O1140     Ni1144   1.912       .  S
O1140      C1147   1.281       .  A
O1141     Ni1144   1.919       .  S
O1141      C1146   1.281   1_655  A
O1142     Ni1144   1.919       .  S
O1142      C1145   1.280       .  A
C1145      C1225   1.468       .  S
C1146      C1230   1.468       .  S
C1147      C1211   1.482       .  S
C1148      C1201   1.482       .  S
O1149     Ni1157   1.918       .  S
O1151     Ni1157   1.921       .  S
O1154     Ni1158   1.917       .  S
O1155     Ni1158   1.921   1_556  S
O1155      C1160   1.283       .  A
O1156      C1159   1.281       .  A
C1161      C1237   1.472       .  S
C1162      C1233   1.474       .  S
O1163     Ni1171   1.912       .  S
O1163      C1173   1.281   1_565  A
O1164     Ni1171   1.912       .  S
O1164      C1174   1.281   1_565  A
O1165     Ni1171   1.920       .  S
O1165      C1175   1.282   1_565  A
O1166     Ni1171   1.918       .  S
O1166      C1176   1.280   1_565  A
O1167     Ni1172   1.916       .  S
O1168     Ni1172   1.916       .  S
O1169     Ni1172   1.916       .  S
O1170     Ni1172   1.916       .  S
C1173      C1181   1.481       .  S
C1174      C1191   1.482       .  S
C1175      C1222   1.475       .  S
C1176      C1218   1.471   1_545  S
C1177      C1182   1.398       .  A
C1177      H1183   1.083       .  S
C1178      C1179   1.405   1_545  A
C1179      C1180   1.395       .  A
C1179      H1184   1.083       .  S
C1180      C1181   1.405   1_565  A
C1180      H1185   1.083       .  S
C1182      H1186   1.083       .  S
C1187      C1192   1.397       .  A
C1187      H1193   1.083       .  S
C1188      C1189   1.404   1_545  A
C1189      C1190   1.396       .  A
C1189      H1194   1.083       .  S
C1190      C1191   1.406   1_565  A
C1190      H1195   1.083       .  S
C1192      H1196   1.083       .  S
C1197      C1202   1.401       .  A
C1197      H1203   1.083       .  S
C1198      C1199   1.406       .  A
C1199      C1200   1.401       .  A
C1199      H1204   1.083       .  S
C1200      C1201   1.406       .  A
C1200      H1205   1.083       .  S
C1202      H1206   1.083       .  S
C1207      C1212   1.395       .  A
C1207      H1213   1.083       .  S
C1208      C1209   1.405       .  A
C1209      C1210   1.397       .  A
C1209      H1214   1.083       .  S
C1210      C1211   1.406       .  A
C1210      H1215   1.083       .  S
C1212      H1216   1.083       .  S
C1217      C1218   1.341   1_545  D
C1218      H1220   1.087       .  S
C1221      C1222   1.342   1_565  D
C1221      H1223   1.087       .  S
C1225      C1226   1.341   1_655  D
C1226      H1228   1.087       .  S
C1229      C1230   1.340   1_655  D
C1230      H1232   1.087       .  S
C1233      C1234   1.342   1_545  D
C1237      H1239   1.087       .  S
C1241      C1242   1.341   1_556  D
