geometry optimzed in LAMMPS
_audit_creation_date              2020-11-30 
_audit_creation_method            'lammps2cif' 
_symmetry_space_group_name_H-M    'P1' 
_symmetry_Int_Tables_number       1 
_symmetry_cell_setting            triclinic 
loop_ 
_symmetry_equiv_pos_as_xyz 
  x,y,z 
_cell_length_a                    54.34929766 
_cell_length_b                    54.33528232392827 
_cell_length_c                    33.57507767516708 
_cell_angle_alpha                 89.4732892833974 
_cell_angle_beta                  89.96641672842078 
_cell_angle_gamma                 89.97205237324 
loop_ 
_atom_site_label 
_atom_site_type_symbol 
_atom_site_fract_x 
_atom_site_fract_y 
_atom_site_fract_z 
_atom_site_charge 
O1          O  0.76754360  0.13018955  0.96669926    -0.77600
C2          C  0.81094911  0.09052734  0.88160867     0.83500
O3          O  0.76372171  0.05099561  0.02261385    -0.78700
O4          O  0.84814921  0.04422700  0.96859126    -0.80200
O5          O  0.85228775  0.13246072  0.01316587    -0.80000
O6          O  0.79040308  0.14785273  0.01353675    -0.78600
Zn7        Zn  0.78076853  0.09594336  0.95765676     1.55700
O8          O  0.86713068  0.10255680  0.97471583    -0.80000
Cd9        Cd  0.81614325  0.11991256  0.02524354     1.59700
Cd10       Cd  0.80038022  0.06113166  0.02838110     1.59600
O11         O  0.81310181  0.11080778  0.08572665    -0.80000
O12         O  0.80847315  0.08975885  0.99276973    -1.90500
Cd13       Cd  0.83785020  0.08076490  0.96017231     1.59900
O14         O  0.80671429  0.07010769  0.08741029    -0.80000
O15         O  0.83104588  0.08647162  0.90003260    -0.78600
C16         C  0.74812722  0.05632947  0.99554264     0.83900
C17         C  0.77237061  0.14835740  0.98916958     0.83600
O18         O  0.79065156  0.09345287  0.89992472    -0.77600
C19         C  0.86993261  0.12245318  0.99389034     0.84400
O20         O  0.75283992  0.07206277  0.96822591    -0.77700
C21         C  0.81014062  0.09057493  0.10486470     0.84500
C22         C  0.83890992  0.02690302  0.98959646     0.84800
O23         O  0.82078289  0.03033613  0.01299251    -0.80100
O24         O  0.76286834  0.13046149  0.46655940    -0.77600
C25         C  0.80569412  0.08594125  0.38288114     0.83500
O26         O  0.75256408  0.05564762  0.52308667    -0.78700
O27         O  0.83904432  0.04065282  0.48116444    -0.80200
O28         O  0.84671905  0.13044486  0.50561805    -0.80000
O29         O  0.78617984  0.14779066  0.51309318    -0.78600
Zn30       Zn  0.77485661  0.09618018  0.45649616     1.55700
O31         O  0.86140519  0.09759576  0.47393239    -0.80000
Cd32       Cd  0.81152862  0.11911536  0.52287085     1.59700
Cd33       Cd  0.78964865  0.06256839  0.53063690     1.59600
O34         O  0.81290670  0.11093416  0.58366727    -0.80000
O35         O  0.80139603  0.08872699  0.49312077    -1.90500
Cd36       Cd  0.83056676  0.07611228  0.46361673     1.59900
O37         O  0.79472235  0.07406552  0.58833975    -0.80000
O38         O  0.82353050  0.07677447  0.40276487    -0.78600
C39         C  0.73837544  0.06010690  0.49376467     0.83900
C40         C  0.76808310  0.14857400  0.48885419     0.83600
O41         O  0.78665404  0.09477440  0.39963588    -0.77600
C42         C  0.86430084  0.11888011  0.48883212     0.84400
O43         O  0.74518554  0.07341324  0.46425124    -0.77700
C44         C  0.80460905  0.09285573  0.60415313     0.84500
C45         C  0.82841941  0.02481847  0.50344823     0.84800
O46         O  0.80883449  0.02969798  0.52277671    -0.80100
O47         O  0.59819752  0.29184772  0.90032544    -0.77600
C48         C  0.65084505  0.27016092  0.99272825     0.83500
O49         O  0.55847221  0.25601359  0.02320570    -0.78700
O50         O  0.61178922  0.31059451  0.08805827    -0.80200
O51         O  0.60057989  0.36479146  0.98127744    -0.80000
O52         O  0.58198127  0.32950167  0.90426456    -0.78600
Zn53       Zn  0.59936707  0.27913507  0.95734990     1.55700
O54         O  0.63192157  0.34936953  0.01677235    -0.80000
Cd55       Cd  0.57946434  0.33482712  0.96547775     1.59700
Cd56       Cd  0.56350006  0.29366617  0.02980931     1.59600
O57         O  0.54329888  0.34346190  0.97907536    -0.80000
O58         O  0.59110640  0.30489415  0.99477892    -1.90500
Cd59       Cd  0.62093699  0.31285966  0.02788963     1.59900
O60         O  0.53064886  0.31205691  0.01703171    -0.80000
O61         O  0.64953787  0.28757361  0.01795814    -0.78600
C62         C  0.56384628  0.24206265  0.99411282     0.83900
C63         C  0.59044747  0.31165314  0.88396933     0.83600
O64         O  0.63348459  0.26603379  0.96822510    -0.77600
C65         C  0.62075514  0.36745759  0.00010823     0.84400
O66         O  0.57694296  0.24951167  0.96483381    -0.77700
C67         C  0.52649413  0.33220376  0.99843058     0.84500
C68         C  0.59161085  0.30680050  0.10654974     0.84800
O69         O  0.57176018  0.30113220  0.08864658    -0.80100
O70         O  0.59535068  0.29242194  0.40151824    -0.77600
C71         C  0.64865376  0.27167831  0.48997762     0.83500
O72         O  0.55612541  0.25787793  0.52484061    -0.78700
O73         O  0.61217585  0.31363328  0.58594482    -0.80200
O74         O  0.59885769  0.36659824  0.48018429    -0.80000
O75         O  0.58035384  0.33061710  0.40342722    -0.78600
Zn76       Zn  0.59635997  0.28015286  0.45802336     1.55700
O77         O  0.63135638  0.35061499  0.51207223    -0.80000
Cd78       Cd  0.57747507  0.33635872  0.46478789     1.59700
Cd79       Cd  0.56234078  0.29553915  0.53143461     1.59600
O80         O  0.54079384  0.34391916  0.47758646    -0.80000
O81         O  0.58916962  0.30652703  0.49457407    -1.90500
Cd82       Cd  0.61985588  0.31475901  0.52528663     1.59900
O83         O  0.52911373  0.31325721  0.51802142    -0.80000
O84         O  0.64821044  0.28971858  0.51402561    -0.78600
C85         C  0.55976875  0.24425332  0.49461166     0.83900
C86         C  0.58842024  0.31215269  0.38413842     0.83600
O87         O  0.63038072  0.26670070  0.46775249    -0.77600
C88         C  0.61988983  0.36888590  0.49670292     0.84400
O89         O  0.57272759  0.25148458  0.46506898    -0.77700
C90         C  0.52426820  0.33253629  0.49750335     0.84500
C91         C  0.59257442  0.30997774  0.60610738     0.84800
O92         O  0.57224569  0.30384219  0.58988468    -0.80100
O93         O  0.53365763  0.06256507  0.02960662    -0.77600
C94         C  0.51409775  0.00954616  0.11748910     0.83500
O95         O  0.57352086  0.99078788  0.97923427    -0.78700
O96         O  0.49806761  0.95125438  0.03410379    -0.80200
O97         O  0.45905582  0.02237544  0.97424649    -0.80000
O98         O  0.50605650  0.06624180  0.98065534    -0.78600
Zn99       Zn  0.53838213  0.02614135  0.04022961     1.55700
O100        O  0.45679905  0.99576033  0.02516042    -0.80000
Cd101      Cd  0.49700494  0.02965914  0.96983738     1.59700
Cd102      Cd  0.53590402  0.98387696  0.97289671     1.59600
O103        O  0.50645348  0.02349124  0.91125528    -0.80000
O104        O  0.51639100  0.00741608  0.00608761    -1.90500
Cd105      Cd  0.49293395  0.98876831  0.04056160     1.59900
O106        O  0.52828624  0.98871623  0.91311065    -0.80000
O107        O  0.49717031  0.99794546  0.09945098    -0.78600
C108        C  0.58511905  0.00513726  0.00254159     0.83900
C109        C  0.52116686  0.07567797  0.00526496     0.83600
O110        O  0.53181849  0.01986331  0.09894745    -0.77600
C111        C  0.44663775  0.00858054  0.99783684     0.84400
O112        O  0.57405037  0.01849469  0.02789310    -0.77700
C113        C  0.51761795  0.00598712  0.89398140     0.84500
C114        C  0.51096775  0.93821156  0.01058516     0.84800
O115        O  0.52633510  0.94765756  0.98611854    -0.80100
O116        O  0.51805705  0.06910691  0.52708076    -0.77600
C117        C  0.50708654  0.01135442  0.61778983     0.83500
O118        O  0.56369047  0.99816506  0.48453726    -0.78700
O119        O  0.48953303  0.95405543  0.53058375    -0.80200
O120        O  0.44633340  0.02529526  0.48192963    -0.80000
O121        O  0.49189775  0.07045427  0.47603839    -0.78600
Zn122      Zn  0.52455356  0.03353763  0.53955147     1.55700
O123        O  0.44708318  0.99906029  0.53372402    -0.80000
Cd124      Cd  0.48341843  0.03276024  0.47030699     1.59700
Cd125      Cd  0.52677108  0.99044310  0.47386406     1.59600
O126        O  0.48994675  0.02387942  0.41129364    -0.80000
O127        O  0.50483822  0.01217700  0.50646929    -1.90500
Cd128      Cd  0.48410417  0.99101262  0.54211059     1.59900
O129        O  0.52178481  0.99791121  0.41415359    -0.80000
O130        O  0.49337017  0.99552677  0.60116814    -0.78600
C131        C  0.57346424  0.01404793  0.50731692     0.83900
C132        C  0.50596703  0.08116213  0.50096648     0.83600
O133        O  0.51887600  0.02752465  0.59790446    -0.77600
C134        C  0.43539318  0.01192496  0.50796062     0.84400
O135        O  0.56058267  0.02791330  0.52948508    -0.77700
C136        C  0.50636662  0.01081806  0.39452433     0.84500
C137        C  0.50340957  0.94227892  0.50681250     0.84800
O138        O  0.51851680  0.95317647  0.48343655    -0.80100
O139        O  0.44712805  0.76913938  0.96134150    -0.77600
C140        C  0.43217154  0.71119261  0.87684892     0.83500
O141        O  0.37261874  0.72852469  0.00997462    -0.78700
O142        O  0.42122040  0.65343040  0.96745505    -0.80200
O143        O  0.49009832  0.70291757  0.01454145    -0.80000
O144        O  0.46557052  0.75978371  0.01873830    -0.78600
Zn145      Zn  0.42410842  0.74012078  0.95276110     1.55700
O146        O  0.47891131  0.67499884  0.96964453    -0.80000
Cd147      Cd  0.45793252  0.72270264  0.02501630     1.59700
Cd148      Cd  0.40093947  0.70271327  0.01911979     1.59600
O149        O  0.44699314  0.71717365  0.08320045    -0.80000
O150        O  0.43122197  0.71255352  0.98795552    -1.90500
Cd151      Cd  0.44289774  0.68406268  0.95580388     1.59900
O152        O  0.40911854  0.70126619  0.08006087    -0.80000
O153        O  0.44070911  0.69233517  0.89507069    -0.78600
C154        C  0.37205326  0.74697971  0.98612486     0.83900
C155        C  0.46084664  0.77488732  0.99058892     0.83600
O156        O  0.42481949  0.73015934  0.89534654    -0.77600
C157        C  0.49492413  0.68449977  0.99256826     0.84400
O158        O  0.39016351  0.75238144  0.96369484    -0.77700
C159        C  0.42780910  0.70841716  0.09988826     0.84500
C160        C  0.40038260  0.65029712  0.98425247     0.84800
O161        O  0.38921702  0.66762167  0.00231062    -0.80100
O162        O  0.44794642  0.77067866  0.46062602    -0.77600
C163        C  0.43194593  0.70929195  0.37778021     0.83500
O164        O  0.37155089  0.73410493  0.50484422    -0.78700
O165        O  0.41826673  0.65491229  0.47642973    -0.80200
O166        O  0.48941247  0.70499077  0.51081954    -0.80000
O167        O  0.46496736  0.76158033  0.51924366    -0.78600
Zn168      Zn  0.42466671  0.74201623  0.45044760     1.55700
O169        O  0.47652638  0.67532787  0.47033100    -0.80000
Cd170      Cd  0.45725881  0.72424359  0.52389653     1.59700
Cd171      Cd  0.39872812  0.70799037  0.51876201     1.59600
O172        O  0.44708323  0.71669325  0.58187275    -0.80000
O173        O  0.42977878  0.71495322  0.48770660    -1.90500
Cd174      Cd  0.43985097  0.68440293  0.45913857     1.59900
O175        O  0.40638334  0.71048219  0.57975824    -0.80000
O176        O  0.43514238  0.68958944  0.39806676    -0.78600
C177        C  0.37157409  0.75166567  0.47929052     0.83900
C178        C  0.46107100  0.77656585  0.49054111     0.83600
O179        O  0.42892556  0.73017207  0.39411320    -0.77600
C180        C  0.49347819  0.68578145  0.49028583     0.84400
O181        O  0.39009834  0.75578489  0.45679825    -0.77700
C182        C  0.42649645  0.71284016  0.59904724     0.84500
C183        C  0.39709973  0.65327252  0.49251767     0.84800
O184        O  0.38606784  0.67195915  0.50714606    -0.80100
O185        O  0.23197921  0.92507477  0.88857257    -0.77600
C186        C  0.28266256  0.95985727  0.97872920     0.83500
O187        O  0.23632336  0.87188077  0.00428369    -0.78700
O188        O  0.22825785  0.94654766  0.07705247    -0.80200
O189        O  0.18093064  0.97806959  0.97111886    -0.80000
O190        O  0.19404225  0.94051111  0.89409778    -0.78600
Zn191      Zn  0.24558968  0.92303813  0.94469064     1.55700
O192        O  0.21251504  0.98953220  0.00912999    -0.80000
Cd193      Cd  0.18921804  0.94213009  0.95561798     1.59700
Cd194      Cd  0.21102028  0.90009139  0.01550271     1.59600
O195        O  0.15917961  0.92037572  0.97118022    -0.80000
O196        O  0.21974041  0.93027806  0.98300189    -1.90500
Cd197      Cd  0.23200500  0.95702783  0.01819985     1.59900
O198        O  0.17521601  0.88795248  0.00321458    -0.80000
O199        O  0.26864129  0.96484028  0.00792575    -0.78600
C200        C  0.25349101  0.87071376  0.97837470     0.83900
C201        C  0.21186556  0.93253558  0.87304313     0.83600
O202        O  0.27570898  0.94568219  0.95074014    -0.77600
C203        C  0.19242352  0.99426386  0.99103945     0.84400
O204        O  0.25795244  0.88848235  0.95435567    -0.77700
C205        C  0.15688625  0.89935998  0.98803537     0.84500
C206        C  0.21962570  0.92761587  0.09485411     0.84800
O207        O  0.21184987  0.90881787  0.07607713    -0.80100
O208        O  0.23084119  0.92986044  0.39111388    -0.77600
C209        C  0.27216245  0.96305656  0.49202572     0.83500
O210        O  0.23042825  0.87243297  0.50363312    -0.78700
O211        O  0.21018062  0.94713474  0.57971799    -0.80200
O212        O  0.17271690  0.97728288  0.46265388    -0.80000
O213        O  0.19045698  0.93716991  0.39075325    -0.78600
Zn214      Zn  0.24002173  0.92561256  0.44930208     1.55700
O215        O  0.20010772  0.98942030  0.50790929    -0.80000
Cd216      Cd  0.18290840  0.94108078  0.45121692     1.59700
Cd217      Cd  0.20390954  0.89957594  0.51423906     1.59600
O218        O  0.15318995  0.91926694  0.46478820    -0.80000
O219        O  0.21188380  0.93069840  0.48388267    -1.90500
Cd220      Cd  0.21948025  0.95763107  0.52211211     1.59900
O221        O  0.16860672  0.88723741  0.49887436    -0.80000
O222        O  0.25664245  0.96649736  0.51989785    -0.78600
C223        C  0.24891297  0.87260170  0.48011711     0.83900
C224        C  0.21070346  0.93346899  0.37252520     0.83600
O225        O  0.26736212  0.94946779  0.46227536    -0.77600
C226        C  0.18187344  0.99373676  0.48506566     0.84400
O227        O  0.25381179  0.89118036  0.45797948    -0.77700
C228        C  0.15072862  0.89836881  0.48176434     0.84500
C229        C  0.20569497  0.92625681  0.59572628     0.84800
O230        O  0.20385477  0.90658858  0.57538766    -0.80100
O231        O  0.93097093  0.78924781  0.09251764    -0.77600
C232        C  0.87565322  0.76900190  0.00606806     0.83500
O233        O  0.96802119  0.75868538  0.96647435    -0.78700
O234        O  0.91053052  0.81000291  0.90759858    -0.80200
O235        O  0.92437320  0.86500410  0.01080408    -0.80000
O236        O  0.93828582  0.82963985  0.08982627    -0.78600
Zn237      Zn  0.92874187  0.77782502  0.03577245     1.55700
O238        O  0.89235289  0.84964973  0.97747241    -0.80000
Cd239      Cd  0.94457462  0.83494356  0.02927333     1.59700
Cd240      Cd  0.96107848  0.79603207  0.96270137     1.59600
O241        O  0.98176254  0.84272927  0.02006175    -0.80000
O242        O  0.93397723  0.80519413  0.99943284    -1.90500
Cd243      Cd  0.90314641  0.81287980  0.96835250     1.59900
O244        O  0.99360636  0.81395562  0.97711072    -0.80000
O245        O  0.87517160  0.78762433  0.98255710    -0.78600
C246        C  0.96523452  0.74388835  0.99573324     0.83900
C247        C  0.93387380  0.80992475  0.10946894     0.83600
O248        O  0.89458229  0.76390585  0.02708246    -0.77600
C249        C  0.90400752  0.86778658  0.99252049     0.84400
O250        O  0.95296681  0.74975005  0.02661628    -0.77700
C251        C  0.99835879  0.83224823  0.99933492     0.84500
C252        C  0.93055582  0.80827531  0.88793912     0.84800
O253        O  0.95129104  0.80460345  0.90474871    -0.80100
O254        O  0.92048999  0.79299293  0.59364705    -0.77600
C255        C  0.86844853  0.77358367  0.50164640     0.83500
O256        O  0.95969452  0.75683710  0.47299859    -0.78700
O257        O  0.90741412  0.81672731  0.40617582    -0.80200
O258        O  0.92007711  0.86570252  0.51661865    -0.80000
O259        O  0.94016070  0.82892175  0.59004982    -0.78600
Zn260      Zn  0.91973785  0.78058533  0.53728938     1.55700
O261        O  0.88763932  0.85099949  0.48341398    -0.80000
Cd262      Cd  0.94157218  0.83504095  0.52858626     1.59700
Cd263      Cd  0.95411228  0.79353688  0.46277652     1.59600
O264        O  0.97756241  0.84225301  0.51186250    -0.80000
O265        O  0.92836094  0.80615969  0.49929716    -1.90500
Cd266      Cd  0.89889198  0.81602264  0.46689371     1.59900
O267        O  0.98734270  0.81160151  0.47087496    -0.80000
O268        O  0.87019808  0.79092458  0.47589185    -0.78600
C269        C  0.95475019  0.74308018  0.50276334     0.83900
C270        C  0.92979547  0.81181278  0.61018146     0.83600
O271        O  0.88561513  0.76885886  0.52628645    -0.77600
C272        C  0.89888040  0.86845116  0.50093102     0.84400
O273        O  0.94170308  0.75046602  0.53186178    -0.77700
C274        C  0.99301754  0.83088707  0.49015466     0.84500
C275        C  0.92528398  0.80736840  0.38685032     0.84800
O276        O  0.94358364  0.79725793  0.40409071    -0.80100
O277        O  0.73014211  0.59441558  0.09389655    -0.77600
C278        C  0.77723965  0.55893572  0.00417124     0.83500
O279        O  0.73459434  0.64834505  0.97799437    -0.78700
O280        O  0.71885744  0.57050042  0.90681232    -0.80200
O281        O  0.67707165  0.54295863  0.02122216    -0.80000
O282        O  0.69012209  0.58552407  0.09092931    -0.78600
Zn283      Zn  0.74224076  0.59711856  0.03754858     1.55700
O284        O  0.70698637  0.52991247  0.98111012    -0.80000
Cd285      Cd  0.68572292  0.57978331  0.03011248     1.59700
Cd286      Cd  0.70895222  0.62016588  0.96742166     1.59600
O287        O  0.65620507  0.60025020  0.01105165    -0.80000
O288        O  0.71607732  0.58993015  0.00052644    -1.90500
Cd289      Cd  0.72616892  0.56182618  0.96619161     1.59900
O290        O  0.67299676  0.63228612  0.97873465    -0.80000
O291        O  0.76322695  0.55378953  0.97493479    -0.78600
C292        C  0.75211856  0.64897314  0.00330998     0.83900
C293        C  0.70952620  0.59028355  0.11070998     0.83600
O294        O  0.77069300  0.57379084  0.03129076    -0.77600
C295        C  0.68780614  0.52590248  0.00205600     0.84400
O296        O  0.75607703  0.63112684  0.02735545    -0.77700
C297        C  0.65443615  0.62106369  0.99366064     0.84500
C298        C  0.71370686  0.59067574  0.88885164     0.84800
O299        O  0.71068584  0.61089484  0.90733109    -0.80100
O300        O  0.72981062  0.59615655  0.59365835    -0.77600
C301        C  0.77781795  0.56293831  0.49817561     0.83500
O302        O  0.73203625  0.64967053  0.47872890    -0.78700
O303        O  0.72021597  0.57490241  0.40495422    -0.80200
O304        O  0.67845414  0.54246923  0.51623702    -0.80000
O305        O  0.69155724  0.58141168  0.59103372    -0.78600
Zn306      Zn  0.74175085  0.59819458  0.53681240     1.55700
O307        O  0.70869122  0.53131916  0.47516986    -0.80000
Cd308      Cd  0.68584500  0.57892886  0.52956579     1.59700
Cd309      Cd  0.70663307  0.62141720  0.46823877     1.59600
O310        O  0.65538276  0.59995339  0.51366723    -0.80000
O311        O  0.71537078  0.59106049  0.49993366    -1.90500
Cd312      Cd  0.72640573  0.56461860  0.46327470     1.59900
O313        O  0.67112591  0.63280723  0.48214666    -0.80000
O314        O  0.76350838  0.55879384  0.46908813    -0.78600
C315        C  0.74945406  0.65061650  0.50417511     0.83900
C316        C  0.71001725  0.58919985  0.61073262     0.83600
O317        O  0.77114264  0.57560412  0.52812698    -0.77600
C318        C  0.68957871  0.52626821  0.49573678     0.84400
O319        O  0.75413653  0.63264387  0.52760074    -0.77700
C320        C  0.65296056  0.62106279  0.49716066     0.84500
C321        C  0.71214945  0.59436796  0.38806804     0.84800
O322        O  0.70604778  0.61347543  0.40756596    -0.80100
O323        O  0.10174151  0.22620216  0.08384990    -0.77600
C324        C  0.15294634  0.24638858  0.99191452     0.83500
O325        O  0.05922443  0.26429022  0.96706859    -0.78700
O326        O  0.11282944  0.20608970  0.89609697    -0.80200
O327        O  0.10103840  0.15417474  0.00533360    -0.80000
O328        O  0.08208465  0.19027849  0.07991641    -0.78600
Zn329      Zn  0.10144305  0.23975058  0.02779236     1.55700
O330        O  0.13298722  0.16874000  0.97046570    -0.80000
Cd331      Cd  0.07995309  0.18488475  0.01856051     1.59700
Cd332      Cd  0.06638747  0.22801976  0.95464660     1.59600
O333        O  0.04367258  0.17787049  0.00304011    -0.80000
O334        O  0.09276911  0.21449930  0.98975709    -1.90500
Cd335      Cd  0.12207362  0.20471888  0.95662597     1.59900
O336        O  0.03339373  0.20940283  0.96328327    -0.80000
O337        O  0.15134310  0.22890414  0.96688263    -0.78600
C338        C  0.06397362  0.27728613  0.99740573     0.83900
C339        C  0.09247971  0.20710897  0.10015373     0.83600
O340        O  0.13545884  0.25160449  0.01562563    -0.77600
C341        C  0.12173303  0.15112833  0.98810934     0.84400
O342        O  0.07834685  0.26966737  0.02494689    -0.77700
C343        C  0.02792067  0.18976295  0.98233881     0.84500
C344        C  0.09467220  0.21572156  0.87750151     0.84800
O345        O  0.07656132  0.22554891  0.89552348    -0.80100
O346        O  0.08639082  0.23127170  0.58278579    -0.77600
C347        C  0.14328915  0.25191869  0.49783568     0.83500
O348        O  0.05115250  0.26267207  0.45513214    -0.78700
O349        O  0.11125883  0.20917214  0.39902167    -0.80200
O350        O  0.09577847  0.15538331  0.50466427    -0.80000
O351        O  0.07859687  0.19102944  0.58087824    -0.78600
Zn352      Zn  0.09018429  0.24235518  0.52575905     1.55700
O353        O  0.12853787  0.17144975  0.47372843    -0.80000
Cd354      Cd  0.07475436  0.18552743  0.51969499     1.59700
Cd355      Cd  0.05931470  0.22520142  0.45046425     1.59600
O356        O  0.03850152  0.17703465  0.50643414    -0.80000
O357        O  0.08556431  0.21538849  0.48923266    -1.90500
Cd358      Cd  0.11714507  0.20761859  0.46045626     1.59900
O359        O  0.02700726  0.20553186  0.46176370    -0.80000
O360        O  0.14426149  0.23359754  0.47431301    -0.78600
C361        C  0.05405629  0.27689536  0.48478078     0.83900
C362        C  0.08265803  0.21071653  0.60024195     0.83600
O363        O  0.12419223  0.25645453  0.51857617    -0.77600
C364        C  0.11689621  0.15310134  0.48869468     0.84400
O365        O  0.06659956  0.27040147  0.51513382    -0.77700
C366        C  0.02234367  0.18681590  0.48374754     0.84500
C367        C  0.09201399  0.21241362  0.37779766     0.84800
O368        O  0.07114480  0.21766327  0.39298229    -0.80100
O369        O  0.26632558  0.38683829  0.01346589    -0.77600
C370        C  0.30857091  0.42882787  0.09880915     0.83500
O371        O  0.25604526  0.46097991  0.95750227    -0.78700
O372        O  0.34095064  0.47742338  0.00325742    -0.80200
O373        O  0.35069910  0.38715404  0.97697199    -0.80000
O374        O  0.29055312  0.36929361  0.96836012    -0.78600
Zn375      Zn  0.27822034  0.42075609  0.02417998     1.55700
O376        O  0.36472311  0.42044995  0.00826262    -0.80000
Cd377      Cd  0.31559301  0.39805125  0.95854603     1.59700
Cd378      Cd  0.29328215  0.45427389  0.94988198     1.59600
O379        O  0.31677460  0.40549753  0.89737478    -0.80000
O380        O  0.30494436  0.42841399  0.98800502    -1.90500
Cd381      Cd  0.33346215  0.44126469  0.01886590     1.59900
O382        O  0.29825601  0.44218414  0.89214787    -0.80000
O383        O  0.32634706  0.43876832  0.07977883    -0.78600
C384        C  0.24180086  0.45661860  0.98687936     0.83900
C385        C  0.27208156  0.36862330  0.99182679     0.83600
O386        O  0.28957042  0.42063384  0.08122444    -0.77600
C387        C  0.36796992  0.39905376  0.99393879     0.84400
O388        O  0.24865002  0.44353671  0.01660440    -0.77700
C389        C  0.30813021  0.42328152  0.87654739     0.84500
C390        C  0.33072744  0.49297018  0.97991689     0.84800
O391        O  0.31221650  0.48740638  0.95835109    -0.80100
O392        O  0.26046845  0.39194093  0.51572084    -0.77600
C393        C  0.30744807  0.43026350  0.59877210     0.83500
O394        O  0.25656196  0.46747937  0.45762710    -0.78700
O395        O  0.34195616  0.47692029  0.50673759    -0.80200
O396        O  0.34583490  0.38587214  0.47279643    -0.80000
O397        O  0.28362819  0.37256820  0.47099163    -0.78600
Zn398      Zn  0.27558732  0.42534779  0.52454980     1.55700
O399        O  0.36241552  0.41816673  0.50354538    -0.80000
Cd400      Cd  0.31036332  0.39915972  0.45837235     1.59700
Cd401      Cd  0.29350511  0.45767956  0.45076876     1.59600
O402        O  0.30928211  0.40637818  0.39702484    -0.80000
O403        O  0.30286991  0.43039076  0.48818303    -1.90500
Cd404      Cd  0.33289065  0.44022532  0.51855095     1.59900
O405        O  0.30014849  0.44650781  0.39286342    -0.80000
O406        O  0.32714879  0.43506595  0.57956860    -0.78600
C407        C  0.24233640  0.46423589  0.48747994     0.83900
C408        C  0.26506092  0.37326128  0.49428907     0.83600
O409        O  0.28697348  0.42690830  0.58124436    -0.77600
C410        C  0.36427145  0.39684440  0.48832810     0.84400
O411        O  0.24833789  0.45029957  0.51657056    -0.77700
C412        C  0.30564095  0.42603843  0.37670089     0.84500
C413        C  0.33248765  0.49356639  0.48440498     0.84800
O414        O  0.31404303  0.48927812  0.46203157    -0.80100
O415        O  0.01994505  0.49294695  0.89321347    -0.77600
C416        C  0.07781634  0.50734038  0.98268679     0.83500
O417        O  0.99741207  0.45060503  0.01637006    -0.78700
O418        O  0.02539643  0.52807748  0.07745048    -0.80200
O419        O  0.99288245  0.56596892  0.95892744    -0.80000
O420        O  0.98954905  0.52042817  0.89353809    -0.78600
Zn421      Zn  0.02870322  0.48779847  0.95121151     1.55700
O422        O  0.02363080  0.56849789  0.00275794    -0.80000
Cd423      Cd  0.98632873  0.52868228  0.95293376     1.59700
Cd424      Cd  0.99026698  0.48786500  0.02476178     1.59600
O425        O  0.95045461  0.52208008  0.96972650    -0.80000
O426        O  0.00944278  0.50875593  0.98614376    -1.90500
Cd427      Cd  0.03121436  0.53175717  0.01672590     1.59900
O428        O  0.95266240  0.49572044  0.02111578    -0.80000
O429        O  0.06798987  0.52259339  0.00666537    -0.78600
C430        C  0.01089040  0.43987961  0.99074447     0.83900
C431        C  0.00399521  0.50605513  0.87508373     0.83600
O432        O  0.06502925  0.49419290  0.95922413    -0.77600
C433        C  0.00772169  0.57856263  0.97989790     0.84400
O434        O  0.02284418  0.45185887  0.96428641    -0.77700
C435        C  0.94034986  0.50940908  0.99730839     0.84500
C436        C  0.01391354  0.51198574  0.09801446     0.84800
O437        O  0.00096926  0.49518785  0.08221420    -0.80100
O438        O  0.02604190  0.49931633  0.39432099    -0.77600
C439        C  0.07829758  0.51179083  0.49218090     0.83500
O440        O  0.99436051  0.45222360  0.50452971    -0.78700
O441        O  0.02083178  0.52176917  0.58322021    -0.80200
O442        O  0.99560554  0.56954943  0.46733250    -0.80000
O443        O  0.00049909  0.53129395  0.39211652    -0.78600
Zn444      Zn  0.03139303  0.49190867  0.45274183     1.55700
O445        O  0.02058694  0.56896051  0.52009010    -0.80000
Cd446      Cd  0.99071373  0.53372151  0.45115008     1.59700
Cd447      Cd  0.98721256  0.48906745  0.51689354     1.59600
O448        O  0.95353285  0.52687372  0.45651827    -0.80000
O449        O  0.01006962  0.51128869  0.48651212    -1.90500
Cd450      Cd  0.02944225  0.53158782  0.52531768     1.59900
O451        O  0.95094538  0.49877001  0.50538682    -0.80000
O452        O  0.06700022  0.52513158  0.51743518    -0.78600
C453        C  0.01033899  0.44252637  0.48167167     0.83900
C454        C  0.01414211  0.51564547  0.37493074     0.83600
O455        O  0.06692307  0.49918564  0.46616216    -0.77600
C456        C  0.00694102  0.58042825  0.49517282     0.84400
O457        O  0.02506163  0.45552358  0.46072637    -0.77700
C458        C  0.94101665  0.51368311  0.48064386     0.84500
C459        C  0.00570389  0.50648000  0.59840578     0.84800
O460        O  0.99188154  0.49288333  0.57744586    -0.80100
C461        C  0.00969209  0.49463067  0.77309550     0.30700
C462        C  0.01952700  0.48386451  0.73879954    -0.35700
C463        C  0.01116968  0.49355168  0.70242971     0.16700
C464        C  0.99427471  0.51251620  0.69996898     0.22500
C465        C  0.98420681  0.52305678  0.73423596    -0.33800
C466        C  0.99258182  0.51337927  0.77057259     0.16600
O467        O  0.01578732  0.48928887  0.81016779    -0.25800
C468        C  0.00233069  0.50476420  0.83158327     0.06400
C469        C  0.98744962  0.52008383  0.80855388    -0.30700
O470        O  0.98987428  0.51943193  0.66296064    -0.22500
C471        C  0.00403401  0.50460975  0.64161046    -0.02500
C472        C  0.01765510  0.48810506  0.66438131    -0.16900
H473        H  0.03314206  0.46933832  0.74036435     0.21000
H474        H  0.97116811  0.53810612  0.73268225     0.19400
H475        H  0.97519119  0.53452666  0.81836847     0.19400
H476        H  0.03079975  0.47453092  0.65433613     0.15200
C477        C  0.01764007  0.52580396  0.19941219     0.30700
C478        C  0.01819261  0.54079082  0.23324757    -0.35700
C479        C  0.01720182  0.52842272  0.27010253     0.16700
C480        C  0.01638080  0.50307200  0.27334292     0.22500
C481        C  0.01549030  0.48816800  0.23962023    -0.33800
C482        C  0.01589149  0.50052040  0.20290765     0.16600
O483        O  0.01775583  0.53333955  0.16193923    -0.25800
C484        C  0.01562350  0.51259458  0.14146639     0.06400
C485        C  0.01429806  0.49165893  0.16536043    -0.30700
O486        O  0.01575143  0.49530964  0.31055907    -0.22500
C487        C  0.01573079  0.51592389  0.33147478    -0.02500
C488        C  0.01644535  0.53714339  0.30800335    -0.16900
H489        H  0.01894523  0.56066425  0.23099435     0.21000
H490        H  0.01419280  0.46832223  0.24186788     0.19400
H491        H  0.01238073  0.47268717  0.15628421     0.19400
H492        H  0.01646728  0.55612244  0.31753761     0.15200
C493        C  0.14106338  0.50379398  0.47297966     0.30700
C494        C  0.16174366  0.49929928  0.44906491    -0.35700
C495        C  0.18310793  0.49167724  0.46908337     0.16700
C496        C  0.18398830  0.48837912  0.50985967     0.22500
C497        C  0.16348367  0.49358434  0.53394805    -0.33800
C498        C  0.14217573  0.50155063  0.51392938     0.16600
O499        O  0.11864946  0.50862537  0.46008186    -0.25800
C500        C  0.10528565  0.51013361  0.49317356     0.06400
C501        C  0.11896904  0.50611455  0.52766375    -0.30700
O502        O  0.20509053  0.47880235  0.52185429    -0.22500
C503        C  0.21803822  0.47632053  0.48839623    -0.02500
C504        C  0.20534247  0.48425252  0.45468557    -0.16900
H505        H  0.16093848  0.50067487  0.41690553     0.21000
H506        H  0.16382883  0.49071119  0.56589373     0.19400
H507        H  0.11236940  0.50480505  0.55803940     0.19400
H508        H  0.21113910  0.48334033  0.42388268     0.15200
C509        C  0.13939754  0.49203356  0.96446985     0.30700
C510        C  0.15935237  0.48340222  0.94202958    -0.35700
C511        C  0.18092489  0.47809274  0.96336020     0.16700
C512        C  0.18264766  0.48054706  0.00414699     0.22500
C513        C  0.16281970  0.48969125  0.02650877    -0.33800
C514        C  0.14137974  0.49554577  0.00500958     0.16600
O515        O  0.11704150  0.49656397  0.95096628    -0.25800
C516        C  0.10464163  0.50368380  0.98305111     0.06400
C517        C  0.11889574  0.50359713  0.01749686    -0.30700
O518        O  0.20420535  0.47323728  0.01815860    -0.22500
C519        C  0.21657612  0.46652299  0.98576042    -0.02500
C520        C  0.20303277  0.46926278  0.95086210    -0.16900
H521        H  0.15801061  0.48059396  0.91022437     0.21000
H522        H  0.16389880  0.49173984  0.05850051     0.19400
H523        H  0.11305688  0.50728435  0.04769225     0.19400
H524        H  0.20850371  0.46474849  0.92079002     0.15200
C525        C  0.29716838  0.42707862  0.77418285     0.30700
C526        C  0.28353124  0.43294599  0.74006103    -0.35700
C527        C  0.29559268  0.42978574  0.70367262     0.16700
C528        C  0.31961983  0.42175281  0.70078954     0.22500
C529        C  0.33314554  0.41526820  0.73507515    -0.33800
C530        C  0.32088024  0.41807761  0.77169212     0.16600
O531        O  0.28971058  0.42981325  0.81115657    -0.25800
C532        C  0.30862269  0.42202045  0.83290614     0.06400
C533        C  0.32852509  0.41424383  0.81006180    -0.30700
O534        O  0.32741093  0.42116943  0.66346973    -0.22500
C535        C  0.30791968  0.42859621  0.64247134    -0.02500
C536        C  0.28762559  0.43401029  0.66594402    -0.16900
H537        H  0.26487230  0.43984053  0.74180097     0.21000
H538        H  0.35194501  0.40877495  0.73336125     0.19400
H539        H  0.34629112  0.40775850  0.82026072     0.19400
H540        H  0.26968335  0.44046214  0.65649841     0.15200
C541        C  0.30650864  0.41358997  0.27403827     0.30700
C542        C  0.30222449  0.40023672  0.23900712    -0.35700
C543        C  0.30634258  0.41300291  0.20296625     0.16700
C544        C  0.31475580  0.43697986  0.20155736     0.22500
C545        C  0.31880223  0.45031573  0.23642750    -0.33800
C546        C  0.31409749  0.43781781  0.27228508     0.16600
O547        O  0.30301633  0.40578216  0.31106366    -0.25800
C548        C  0.30807057  0.42546258  0.33303273     0.06400
C549        C  0.31497375  0.44585888  0.31042763    -0.30700
O550        O  0.31722981  0.44548210  0.16487392    -0.22500
C551        C  0.30987794  0.42690955  0.14237517    -0.02500
C552        C  0.30278677  0.40623227  0.16436225    -0.16900
H553        H  0.29561567  0.38144126  0.23977700     0.21000
H554        H  0.32469201  0.46934800  0.23563472     0.19400
H555        H  0.31977371  0.46406443  0.32070442     0.19400
H556        H  0.29593803  0.38884975  0.15342409     0.15200
C557        C  0.03288774  0.33656915  0.46286020     0.30700
C558        C  0.02943650  0.35776411  0.43925592    -0.35700
C559        C  0.02187927  0.37900671  0.45940225     0.16700
C560        C  0.01740643  0.37927946  0.49987913     0.22500
C561        C  0.02101693  0.35812902  0.52352943    -0.33800
C562        C  0.02914868  0.33704459  0.50352076     0.16600
O563        O  0.04126246  0.31510327  0.45056806    -0.25800
C564        C  0.04323390  0.30175728  0.48386452     0.06400
C565        C  0.03605739  0.31450883  0.51771860    -0.30700
O566        O  0.01153329  0.40141189  0.51279068    -0.22500
C567        C  0.01259069  0.41556229  0.48025725    -0.02500
C568        C  0.01901223  0.40262854  0.44621950    -0.16900
H569        H  0.03321856  0.35790735  0.40758766     0.21000
H570        H  0.01850850  0.35833652  0.55552160     0.19400
H571        H  0.03642505  0.30822609  0.54840863     0.19400
H572        H  0.02196557  0.40979308  0.41640283     0.15200
C573        C  0.21716761  0.33153583  0.51316825     0.30700
C574        C  0.19522460  0.32339285  0.53081716    -0.35700
C575        C  0.18566999  0.30122823  0.51649082     0.16700
C576        C  0.19684207  0.28786015  0.48676525     0.22500
C577        C  0.21896019  0.29597218  0.46920662    -0.33800
C578        C  0.22857596  0.31822890  0.48359258     0.16600
O579        O  0.22869802  0.35224552  0.52110169    -0.25800
C580        C  0.24788159  0.35230424  0.49646358     0.06400
C581        C  0.24879488  0.33155574  0.47240537    -0.30700
O582        O  0.18391921  0.26821540  0.47677259    -0.22500
C583        C  0.16428013  0.26907132  0.50055003    -0.02500
C584        C  0.16451145  0.28919909  0.52587503    -0.16900
H585        H  0.18596224  0.33388693  0.55363930     0.21000
H586        H  0.22779135  0.28590353  0.44546379     0.19400
H587        H  0.26203400  0.32726763  0.44938364     0.19400
H588        H  0.15062205  0.29464742  0.54719068     0.15200
C589        C  0.02342326  0.37825399  0.01490934     0.30700
C590        C  0.03189448  0.35881205  0.03930913    -0.35700
C591        C  0.03881008  0.33714329  0.01960018     0.16700
C592        C  0.03678839  0.33465117  0.97885887     0.22500
C593        C  0.02833841  0.35398942  0.95457842    -0.33800
C594        C  0.02211608  0.37578903  0.97408494     0.16600
O595        O  0.01816498  0.40084171  0.02646312    -0.25800
C596        C  0.01375726  0.41298019  0.99254126     0.06400
C597        C  0.01600915  0.39831928  0.95904658    -0.30700
O598        O  0.04495408  0.31328201  0.96629925    -0.22500
C599        C  0.05273447  0.30190890  0.99918385    -0.02500
C600        C  0.04940670  0.31585631  0.03340924    -0.16900
H601        H  0.03394313  0.36081210  0.07118481     0.21000
H602        H  0.02764658  0.35246550  0.92247001     0.19400
H603        H  0.01453011  0.40379460  0.92805375     0.19400
H604        H  0.05431600  0.31112455  0.06376863     0.15200
C605        C  0.23864413  0.31360912  0.98115835     0.30700
C606        C  0.23014039  0.29205852  0.96262835    -0.35700
C607        C  0.20894176  0.28121366  0.97938862     0.16700
C608        C  0.19723126  0.29091124  0.01221337     0.22500
C609        C  0.20587296  0.31204748  0.03094023    -0.33800
C610        C  0.22672813  0.32290004  0.01407774     0.16600
O611        O  0.25689982  0.32799035  0.96904226    -0.25800
C612        C  0.25640261  0.34660544  0.99465375     0.06400
C613        C  0.23806830  0.34425006  0.02325077    -0.30700
O614        O  0.17675655  0.27933650  0.02122435    -0.22500
C615        C  0.17507158  0.26183724  0.99403183    -0.02500
C616        C  0.19469684  0.26190247  0.96724581    -0.16900
H617        H  0.23881492  0.28484308  0.93615034     0.21000
H618        H  0.19633235  0.32009822  0.05598130     0.19400
H619        H  0.23319251  0.35698001  0.04660720     0.19400
H620        H  0.19734397  0.25034766  0.94150349     0.15200
C621        C  0.09574944  0.20260775  0.77534063     0.30700
C622        C  0.09849533  0.18804784  0.74120458    -0.35700
C623        C  0.09117640  0.19895598  0.70497520     0.16700
C624        C  0.08230536  0.22273198  0.70249818     0.22500
C625        C  0.07916435  0.23709494  0.73660034    -0.33800
C626        C  0.08601553  0.22604063  0.77279394     0.16600
O627        O  0.10100697  0.19605614  0.81238512    -0.25800
C628        C  0.09418260  0.21544081  0.83373560     0.06400
C629        C  0.08464693  0.23455906  0.81068443    -0.30700
O630        O  0.07779945  0.22976469  0.66555832    -0.22500
C631        C  0.08337466  0.21011405  0.64400726    -0.02500
C632        C  0.09162436  0.19028593  0.66692720    -0.16900
H633        H  0.10576333  0.16951640  0.74278967     0.21000
H634        H  0.07189276  0.25562863  0.73501185     0.19400
H635        H  0.07751347  0.25208282  0.82055784     0.19400
H636        H  0.09799421  0.17252400  0.65683733     0.15200
C637        C  0.10563690  0.20800534  0.20238980     0.30700
C638        C  0.11973803  0.21197680  0.23687068    -0.35700
C639        C  0.10715055  0.20977401  0.27333284     0.16700
C640        C  0.08234214  0.20448413  0.27551583     0.22500
C641        C  0.06844563  0.19996437  0.24119345    -0.33800
C642        C  0.08108657  0.20168168  0.20491449     0.16600
O643        O  0.11315743  0.21040736  0.16513291    -0.25800
C644        C  0.09328686  0.20493160  0.14373598     0.06400
C645        C  0.07287711  0.19920319  0.16687863    -0.30700
O646        O  0.07389817  0.20471317  0.31230335    -0.22500
C647        C  0.09357298  0.20981999  0.33424873    -0.02500
C648        C  0.11488121  0.21296943  0.31165715    -0.16900
H649        H  0.13902572  0.21686824  0.23535060     0.21000
H650        H  0.04899235  0.19578063  0.24264706     0.19400
H651        H  0.05438404  0.19508430  0.15701844     0.19400
H652        H  0.13315494  0.21766690  0.32189415     0.15200
C653        C  0.87974595  0.52494371  0.50524191     0.30700
C654        C  0.86030804  0.53060485  0.53106686    -0.35700
C655        C  0.83864587  0.53903884  0.51294449     0.16700
C656        C  0.83608422  0.54116370  0.47214605     0.22500
C657        C  0.85560599  0.53576707  0.44631507    -0.33800
C658        C  0.87746115  0.52787494  0.46451067     0.16600
O659        O  0.90207333  0.51819865  0.51595932    -0.25800
C660        C  0.91431839  0.51707894  0.48173965     0.06400
C661        C  0.90001026  0.52304333  0.44872087    -0.30700
O662        O  0.81425482  0.54949254  0.46166927    -0.22500
C663        C  0.80287004  0.55313223  0.49620380    -0.02500
C664        C  0.81715787  0.54707655  0.52915172    -0.16900
H665        H  0.86217769  0.52917299  0.56310146     0.21000
H666        H  0.85405142  0.53815075  0.41436670     0.19400
H667        H  0.90566365  0.52447867  0.41786339     0.19400
H668        H  0.81236629  0.54837025  0.56036037     0.15200
C669        C  0.87970646  0.52324947  0.02362687     0.30700
C670        C  0.86111369  0.53440703  0.04630069    -0.35700
C671        C  0.83837120  0.53773540  0.02711210     0.16700
C672        C  0.83410451  0.53023215  0.98854645     0.22500
C673        C  0.85263380  0.51908362  0.96598025    -0.33800
C674        C  0.87543580  0.51614419  0.98485934     0.16600
O675        O  0.90294083  0.52031830  0.03421283    -0.25800
C676        C  0.91359037  0.51133097  0.00171217     0.06400
C677        C  0.89740886  0.50848936  0.97010724    -0.30700
O678        O  0.81193185  0.53614457  0.97575169    -0.22500
C679        C  0.80185080  0.54776853  0.00635921    -0.02500
C680        C  0.81744057  0.54930981  0.03917763    -0.16900
H681        H  0.86443205  0.54092250  0.07619429     0.21000
H682        H  0.84975061  0.51394356  0.93526133     0.19400
H683        H  0.90156733  0.50287559  0.93998914     0.19400
H684        H  0.81404703  0.55821419  0.06736976     0.15200
C685        C  0.71488017  0.60184261  0.78582638     0.30700
C686        C  0.72185268  0.61403098  0.75058827    -0.35700
C687        C  0.71490457  0.60272532  0.71494048     0.16700
C688        C  0.70136362  0.58125216  0.71384497     0.22500
C689        C  0.69452776  0.56893311  0.74916980    -0.33800
C690        C  0.70212439  0.57988440  0.78489733     0.16600
O691        O  0.72023409  0.60875320  0.82238393    -0.25800
C692        C  0.71125899  0.59075050  0.84521977     0.06400
C693        C  0.69985439  0.57224262  0.82356159    -0.30700
O694        O  0.69717784  0.57383089  0.67705610    -0.22500
C695        C  0.70859269  0.59056397  0.65445199    -0.02500
C696        C  0.71997953  0.60888179  0.67644106    -0.16900
H697        H  0.73250183  0.63086330  0.75093533     0.21000
H698        H  0.68453851  0.55170364  0.74880496     0.19400
H699        H  0.69116060  0.55564074  0.83474383     0.19400
H700        H  0.73063177  0.62437614  0.66554513     0.15200
C701        C  0.69813695  0.59731172  0.21284954     0.30700
C702        C  0.68651358  0.60613212  0.24736835    -0.35700
C703        C  0.69808852  0.60026309  0.28370761     0.16700
C704        C  0.71918551  0.58612894  0.28576833     0.22500
C705        C  0.73088022  0.57761529  0.25145395    -0.33800
C706        C  0.71973767  0.58399828  0.21532276     0.16600
O707        O  0.69105765  0.60097453  0.17558186    -0.25800
C708        C  0.70868304  0.59021536  0.15431618     0.06400
C709        C  0.72696865  0.57949483  0.17744936    -0.30700
O710        O  0.72667995  0.58229335  0.32251881    -0.22500
C711        C  0.71053824  0.59450159  0.34450222    -0.02500
C712        C  0.69234210  0.60620092  0.32207410    -0.16900
H713        H  0.66986098  0.61704222  0.24596908     0.21000
H714        H  0.74771593  0.56698184  0.25282800     0.19400
H715        H  0.74325484  0.56978941  0.16763949     0.19400
H716        H  0.67694518  0.61699833  0.33257279     0.15200
C717        C  0.97730931  0.68362265  0.52104662     0.30700
C718        C  0.98575419  0.66334773  0.54348716    -0.35700
C719        C  0.99307813  0.64268951  0.52154170     0.16700
C720        C  0.99162285  0.64199438  0.48050433     0.22500
C721        C  0.98354553  0.66226431  0.45816188    -0.33800
C722        C  0.97672469  0.68294149  0.47995749     0.16600
O723        O  0.96930514  0.70480608  0.53507956    -0.25800
C724        C  0.96400614  0.71779381  0.50238304     0.06400
C725        C  0.96828832  0.70513084  0.46734715    -0.30700
O726        O  0.99740511  0.62036244  0.46610018    -0.22500
C727        C  0.00318361  0.60702307  0.49808602    -0.02500
C728        C  0.00101062  0.61994135  0.53354234    -0.16900
H729        H  0.98633261  0.66357117  0.57570921     0.21000
H730        H  0.98233664  0.66181407  0.42598873     0.19400
H731        H  0.96532621  0.71134356  0.43698739     0.19400
H732        H  0.00322855  0.61307114  0.56369273     0.15200
C733        C  0.82406242  0.72891474  0.52276198     0.30700
C734        C  0.81464169  0.70847930  0.54331045    -0.35700
C735        C  0.79438657  0.69694782  0.52588310     0.16700
C736        C  0.78385687  0.70497917  0.49070026     0.22500
C737        C  0.79317503  0.72573548  0.47025799    -0.33800
C738        C  0.81366100  0.73727451  0.48766045     0.16600
O739        O  0.84401198  0.74112383  0.53245269    -0.25800
C740        C  0.84656904  0.75772397  0.50344392     0.06400
C741        C  0.82814033  0.75634407  0.47468814    -0.30700
O742        O  0.76597406  0.69027764  0.47867607    -0.22500
C743        C  0.76520872  0.67266030  0.50657563    -0.02500
C744        C  0.78243080  0.67600306  0.53664917    -0.16900
H745        H  0.82310872  0.70150099  0.57032179     0.21000
H746        H  0.78554105  0.73192523  0.44213612     0.19400
H747        H  0.82639584  0.76695964  0.44739961     0.19400
H748        H  0.78623457  0.66414506  0.56200104     0.15200
C749        C  0.98269943  0.68436547  0.96896169     0.30700
C750        C  0.98253132  0.66331985  0.94512723    -0.35700
C751        C  0.99323099  0.64215665  0.96182959     0.16700
C752        C  0.00392570  0.64180031  0.99911069     0.22500
C753        C  0.00402353  0.66289400  0.02307700    -0.33800
C754        C  0.99271140  0.68394658  0.00675000     0.16600
O755        O  0.97244695  0.70566477  0.95994359    -0.25800
C756        C  0.97548270  0.71899254  0.99256221     0.06400
C757        C  0.98789357  0.70645567  0.02280937    -0.30700
O758        O  0.01162569  0.61961102  0.00962612    -0.22500
C759        C  0.00553104  0.60557015  0.97885191    -0.02500
C760        C  0.99401835  0.61864029  0.94829913    -0.16900
H761        H  0.97382816  0.66321941  0.91612798     0.21000
H762        H  0.01151597  0.66262635  0.05294813     0.19400
H763        H  0.99238184  0.71288529  0.05234888     0.19400
H764        H  0.98637721  0.61160733  0.92088994     0.15200
C765        C  0.82123142  0.73419319  0.99469076     0.30700
C766        C  0.79895784  0.72655899  0.97706184    -0.35700
C767        C  0.78890957  0.70426224  0.99154542     0.16700
C768        C  0.80006073  0.69062865  0.02134598     0.22500
C769        C  0.82211028  0.69826026  0.03893872    -0.33800
C770        C  0.83209783  0.72034965  0.02449277     0.16600
O771        O  0.83461135  0.75370444  0.98469926    -0.25800
C772        C  0.85422957  0.75221447  0.00854958     0.06400
C773        C  0.85349443  0.73183822  0.03390520    -0.30700
O774        O  0.78827610  0.67003221  0.02958062    -0.22500
C775        C  0.76914796  0.67018283  0.00489051    -0.02500
C776        C  0.76853300  0.69110151  0.98039980    -0.16900
H777        H  0.79036348  0.73696861  0.95322102     0.21000
H778        H  0.83115105  0.68741227  0.06182469     0.19400
H779        H  0.86720696  0.72587993  0.05529141     0.19400
H780        H  0.75542012  0.69560391  0.95720642     0.15200
C781        C  0.91743630  0.80906100  0.78561321     0.30700
C782        C  0.90377877  0.80451457  0.75096253    -0.35700
C783        C  0.91577860  0.80949693  0.71472105     0.16700
C784        C  0.93933791  0.81894093  0.71267390     0.22500
C785        C  0.95302397  0.82332216  0.74728943    -0.33800
C786        C  0.94127445  0.81774393  0.78345052     0.16600
O787        O  0.91021882  0.80493411  0.82264693    -0.25800
C788        C  0.92985554  0.81069343  0.84433419     0.06400
C789        C  0.94971338  0.81867066  0.82152504    -0.30700
O790        O  0.94716512  0.82177196  0.67568938    -0.22500
C791        C  0.92854434  0.81362780  0.65377572    -0.02500
C792        C  0.90855829  0.80571103  0.67642740    -0.16900
H793        H  0.88532675  0.79704145  0.75215138     0.21000
H794        H  0.97176684  0.83002662  0.74608405     0.19400
H795        H  0.96775685  0.82428576  0.83161588     0.19400
H796        H  0.89137512  0.79797983  0.66610606     0.15200
C797        C  0.93168211  0.79808333  0.21187628     0.30700
C798        C  0.93348396  0.78355977  0.24640209    -0.35700
C799        C  0.92940578  0.79569252  0.28238656     0.16700
C800        C  0.92341156  0.82035024  0.28440826     0.22500
C801        C  0.92189585  0.83499903  0.24975603    -0.33800
C802        C  0.92648168  0.82292678  0.21366434     0.16600
O803        O  0.93488903  0.79040413  0.17519060    -0.25800
C804        C  0.93209611  0.81060166  0.15304654     0.06400
C805        C  0.92693734  0.83148057  0.17531452    -0.30700
O806        O  0.92037747  0.82778963  0.32145231    -0.22500
C807        C  0.92487843  0.80767224  0.34319047    -0.02500
C808        C  0.93069967  0.78723881  0.32050960    -0.16900
H809        H  0.93800731  0.76416682  0.24529341     0.21000
H810        H  0.91770400  0.85446215  0.25088721     0.19400
H811        H  0.92363766  0.85007007  0.16472887     0.19400
H812        H  0.93535511  0.76886571  0.33075598     0.15200
C813        C  0.12999895  0.08982504  0.48785055     0.30700
C814        C  0.12456637  0.06453461  0.48809343    -0.35700
C815        C  0.14484216  0.04856615  0.48614975     0.16700
C816        C  0.16882178  0.05691657  0.48510402     0.22500
C817        C  0.17421358  0.08218977  0.48426505    -0.33800
C818        C  0.15393233  0.09816047  0.48527470     0.16600
O819        O  0.11393234  0.10799314  0.48958935    -0.25800
C820        C  0.12770720  0.12824685  0.48743570     0.06400
C821        C  0.15273896  0.12324854  0.48450185    -0.30700
O822        O  0.18498522  0.03879706  0.48476563    -0.22500
C823        C  0.17118870  0.01857873  0.48470519    -0.02500
C824        C  0.14606750  0.02349351  0.48535500    -0.16900
H825        H  0.10584958  0.05779163  0.48957912     0.21000
H826        H  0.19292958  0.08892956  0.48285160     0.19400
H827        H  0.16782713  0.13620501  0.48275049     0.19400
H828        H  0.13100048  0.01047458  0.48608066     0.15200
C829        C  0.04699507  0.86584784  0.48865013     0.30700
C830        C  0.06108461  0.88730677  0.49166580    -0.35700
C831        C  0.08647384  0.88444280  0.48650604     0.16700
C832        C  0.09744414  0.86195004  0.47963385     0.22500
C833        C  0.08324036  0.84049452  0.47573874    -0.33800
C834        C  0.05769778  0.84343502  0.48022255     0.16600
O835        O  0.02299480  0.86431758  0.49334256    -0.25800
C836        C  0.01810179  0.84070075  0.48720184     0.06400
C837        C  0.03894235  0.82679500  0.47863626    -0.30700
O838        O  0.12167995  0.86354017  0.47746013    -0.22500
C839        C  0.12606755  0.88742651  0.48233719    -0.02500
C840        C  0.10486924  0.90128841  0.48773346    -0.16900
H841        H  0.05283111  0.90499470  0.49785754     0.21000
H842        H  0.09151086  0.82277003  0.46989173     0.19400
H843        H  0.04011858  0.80724440  0.47302894     0.19400
H844        H  0.10334503  0.92089331  0.49265462     0.15200
C845        C  0.15910661  0.09827165  0.98897359     0.30700
C846        C  0.18112386  0.08467814  0.98864626    -0.35700
C847        C  0.17865736  0.05898412  0.99170584     0.16700
C848        C  0.15605885  0.04746204  0.99405014     0.22500
C849        C  0.13412568  0.06104529  0.99521170    -0.33800
C850        C  0.13661787  0.08670029  0.99287137     0.16600
O851        O  0.15699086  0.12246159  0.98610171    -0.25800
C852        C  0.13285156  0.12639076  0.98883127     0.06400
C853        C  0.11932651  0.10480990  0.99325743    -0.30700
O854        O  0.15790523  0.02326136  0.99435942    -0.22500
C855        C  0.18202037  0.01918180  0.99300292    -0.02500
C856        C  0.19588013  0.04070473  0.99166793    -0.16900
H857        H  0.19891153  0.09349819  0.98597360     0.21000
H858        H  0.11632415  0.05220791  0.99746757     0.19400
H859        H  0.09957866  0.10279086  0.99597542     0.19400
H860        H  0.21566749  0.04254038  0.98945428     0.15200
C861        C  0.21392952  0.91940530  0.77106625     0.30700
C862        C  0.22138737  0.90667962  0.73695187    -0.35700
C863        C  0.21179804  0.91527389  0.70064735     0.16700
C864        C  0.19639539  0.93542498  0.69791776     0.22500
C865        C  0.18840902  0.94778821  0.73220260    -0.33800
C866        C  0.19763207  0.93885487  0.76866367     0.16600
O867        O  0.22123623  0.91486871  0.80784428    -0.25800
C868        C  0.20915508  0.93131974  0.82950167     0.06400
C869        C  0.19404758  0.94665694  0.80677244    -0.30700
O870        O  0.19155432  0.94165984  0.66061352    -0.22500
C871        C  0.20350427  0.92487431  0.63932632    -0.02500
C872        C  0.21621037  0.90787886  0.66265627    -0.16900
H873        H  0.23412987  0.89138699  0.73854295     0.21000
H874        H  0.17627073  0.96356202  0.73050884     0.19400
H875        H  0.18254782  0.96164547  0.81680956     0.19400
H876        H  0.22824625  0.89324107  0.65290078     0.15200
C877        C  0.20634739  0.92242474  0.19697055     0.30700
C878        C  0.19288350  0.91564146  0.23109773    -0.35700
C879        C  0.20192587  0.92437691  0.26754211     0.16700
C880        C  0.22307301  0.93833398  0.27027915     0.22500
C881        C  0.23621847  0.94552026  0.23615908    -0.33800
C882        C  0.22692312  0.93719797  0.19975312     0.16600
O883        O  0.20126333  0.91643096  0.15980086    -0.25800
C884        C  0.21863436  0.92784472  0.13860919     0.06400
C885        C  0.23497825  0.94112115  0.16189582    -0.30700
O886        O  0.22891176  0.94347277  0.30741521    -0.22500
C887        C  0.21098654  0.93314554  0.32875379    -0.02500
C888        C  0.19357353  0.92116472  0.30556126    -0.16900
H889        H  0.17651866  0.90434765  0.22937056     0.21000
H890        H  0.25261604  0.95677128  0.23788258     0.19400
H891        H  0.25054912  0.95207473  0.15222248     0.19400
H892        H  0.17761184  0.91087685  0.31544528     0.15200
C893        C  0.05281527  0.86693646  0.00209618     0.30700
C894        C  0.06698492  0.88850920  0.00276409    -0.35700
C895        C  0.09243063  0.88549742  0.99762855     0.16700
C896        C  0.10340398  0.86277584  0.99319624     0.22500
C897        C  0.08916569  0.84116149  0.99203362    -0.33800
C898        C  0.06358155  0.84424312  0.99620689     0.16600
O899        O  0.02862409  0.86565474  0.00512922    -0.25800
C900        C  0.02370393  0.84187078  0.00045025     0.06400
C901        C  0.04473870  0.82766782  0.99467046    -0.30700
O902        O  0.12761681  0.86435386  0.98955449    -0.22500
C903        C  0.13206076  0.88846450  0.99090335    -0.02500
C904        C  0.11083320  0.90244067  0.99567142    -0.16900
H905        H  0.05869805  0.90645506  0.00641340     0.21000
H906        H  0.09740190  0.82326115  0.98763163     0.19400
H907        H  0.04590530  0.80804667  0.98973907     0.19400
H908        H  0.10927788  0.92223734  0.99792993     0.15200
C909        C  0.55693063  0.67312383  0.49144240     0.30700
C910        C  0.58219521  0.67853341  0.49321028    -0.35700
C911        C  0.59821225  0.65824800  0.49259014     0.16700
C912        C  0.58991327  0.63427104  0.49105306     0.22500
C913        C  0.56470630  0.62889228  0.48831471    -0.33800
C914        C  0.54871914  0.64918818  0.48827283     0.16600
O915        O  0.53868598  0.68917106  0.49279158    -0.25800
C916        C  0.51853736  0.67537108  0.48967990     0.06400
C917        C  0.52368239  0.65037216  0.48651121    -0.30700
O918        O  0.60799911  0.61809646  0.49276657    -0.22500
C919        C  0.62819190  0.63187536  0.49479049    -0.02500
C920        C  0.62326229  0.65700850  0.49440957    -0.16900
H921        H  0.58888511  0.69723309  0.49533210     0.21000
H922        H  0.55801261  0.61016938  0.48673235     0.19400
H923        H  0.51080047  0.63526041  0.48429756     0.19400
H924        H  0.63621557  0.67208365  0.49619801     0.15200
C925        C  0.29529164  0.82928636  0.46057213     0.30700
C926        C  0.31617483  0.82018322  0.44104140    -0.35700
C927        C  0.32696584  0.79903721  0.45772248     0.16700
C928        C  0.31786754  0.78745128  0.49136201     0.22500
C929        C  0.29673314  0.79646332  0.51079270    -0.33800
C930        C  0.28589385  0.81774078  0.49404883     0.16600
O931        O  0.28325298  0.84958074  0.45106105    -0.25800
C932        C  0.26566816  0.85116738  0.47851053     0.06400
C933        C  0.26634719  0.83177618  0.50606059    -0.30700
O934        O  0.33180617  0.76869006  0.50293154    -0.22500
C935        C  0.35004641  0.76832398  0.47628865    -0.02500
C936        C  0.34784232  0.78677218  0.44747246    -0.16900
H937        H  0.32388793  0.82937124  0.41514270     0.21000
H938        H  0.28960738  0.78786035  0.53763277     0.19400
H939        H  0.25474557  0.82896232  0.53192574     0.19400
H940        H  0.36034601  0.79108444  0.42327856     0.15200
C941        C  0.34558468  0.55704284  0.48076248     0.30700
C942        C  0.34053950  0.58232506  0.47593293    -0.35700
C943        C  0.35989732  0.59854159  0.48495368     0.16700
C944        C  0.38280787  0.59034426  0.49681595     0.22500
C945        C  0.38775168  0.56515311  0.50206580    -0.33800
C946        C  0.36827260  0.54902433  0.49396842     0.16600
O947        O  0.33012229  0.53865450  0.47475312    -0.25800
C948        C  0.34298834  0.51864092  0.48484069     0.06400
C949        C  0.36682507  0.52403313  0.49707232    -0.30700
O950        O  0.39859562  0.60849059  0.50175414    -0.22500
C951        C  0.38556532  0.62871712  0.49392766    -0.02500
C952        C  0.36129502  0.62368954  0.48345753    -0.16900
H953        H  0.32274205  0.58889024  0.46604856     0.21000
H954        H  0.40556555  0.55858311  0.51187062     0.19400
H955        H  0.38098190  0.51135770  0.50693231     0.19400
H956        H  0.34714965  0.63658596  0.47436058     0.15200
C957        C  0.59176653  0.63446978  0.98557408     0.30700
C958        C  0.56685602  0.62950906  0.97824041    -0.35700
C959        C  0.55043527  0.64883815  0.98567956     0.16700
C960        C  0.55792870  0.67131454  0.00017991     0.22500
C961        C  0.58288921  0.67634563  0.00710961    -0.33800
C962        C  0.59939278  0.65722038  0.99874316     0.16600
O963        O  0.61017865  0.61892968  0.98141490    -0.25800
C964        C  0.62990021  0.63207884  0.99106875     0.06400
C965        C  0.62437573  0.65605449  0.00197645    -0.30700
O966        O  0.53941071  0.68667664  0.00528671    -0.22500
C967        C  0.51985755  0.67399409  0.99335737    -0.02500
C968        C  0.52561954  0.65035392  0.98075432    -0.16900
H969        H  0.56072544  0.61185090  0.96736701     0.21000
H970        H  0.58902342  0.69399472  0.01799570     0.19400
H971        H  0.63682714  0.67015166  0.01234230     0.19400
H972        H  0.51330249  0.63638088  0.96955323     0.15200
C973        C  0.32882619  0.79265355  0.96368791     0.30700
C974        C  0.32033431  0.81359652  0.94340031    -0.35700
C975        C  0.29927963  0.82471784  0.95902431     0.16700
C976        C  0.28717149  0.81586637  0.99232386     0.22500
C977        C  0.29552453  0.79454738  0.01241680    -0.33800
C978        C  0.31681271  0.78339217  0.99680626     0.16600
O979        O  0.34917330  0.78063579  0.95555188    -0.25800
C980        C  0.35041123  0.76322543  0.98353804     0.06400
C981        C  0.33067158  0.76388771  0.01007991    -0.30700
O982        O  0.26881176  0.83037279  0.00317702    -0.22500
C983        C  0.26929916  0.84865241  0.97637171    -0.02500
C984        C  0.28781850  0.84593639  0.94817194    -0.16900
H985        H  0.33003251  0.82122575  0.91794943     0.21000
H986        H  0.28657580  0.78765465  0.03908519     0.19400
H987        H  0.32760091  0.75245058  0.03617563     0.19400
H988        H  0.29279546  0.85839470  0.92413007     0.15200
C989        C  0.41660818  0.71643437  0.70212685     0.30700
C990        C  0.40516241  0.72398713  0.73750459    -0.35700
C991        C  0.41741473  0.71774742  0.77303349     0.16700
C992        C  0.43911860  0.70451893  0.77376723     0.22500
C993        C  0.45074226  0.69736835  0.73845654    -0.33800
C994        C  0.43877665  0.70401658  0.70299979     0.16600
O995        O  0.40874403  0.72062064  0.66543129    -0.25800
C996        C  0.42634536  0.71104822  0.64270833     0.06400
C997        C  0.44549026  0.70063137  0.66447143    -0.30700
O998        O  0.44710191  0.70017167  0.81025982    -0.22500
C999        C  0.43053332  0.71113640  0.83320947    -0.02500
C1000       C  0.41174708  0.72252155  0.81171955    -0.16900
H1001       H  0.38805144  0.73419483  0.73734282     0.21000
H1002       H  0.46803090  0.68746812  0.73860067     0.19400
H1003       H  0.46204200  0.69196468  0.65338356     0.19400
H1004       H  0.39604364  0.73252579  0.82306905     0.15200
C1005       C  0.42408484  0.69737391  0.27598646     0.30700
C1006       C  0.41494999  0.68548260  0.24197282    -0.35700
C1007       C  0.42105724  0.69636572  0.20508164     0.16700
C1008       C  0.43558210  0.71714237  0.20208951     0.22500
C1009       C  0.44429990  0.72919719  0.23592211    -0.33800
C1010       C  0.43780343  0.71866555  0.27259393     0.16600
O1011       O  0.42059009  0.69068892  0.31353519    -0.25800
C1012       C  0.43189847  0.70822204  0.33412890     0.06400
C1013       C  0.44277436  0.72611543  0.31021943    -0.30700
O1014       O  0.43977858  0.72383992  0.16496576    -0.22500
C1015       C  0.42745962  0.70748049  0.14361741    -0.02500
C1016       C  0.41526814  0.68997223  0.16690469    -0.16900
H1017       H  0.40380415  0.66902085  0.24411983     0.21000
H1018       H  0.45533722  0.74573590  0.23378157     0.19400
H1019       H  0.45292096  0.74224742  0.31935314     0.19400
H1020       H  0.40428026  0.67456478  0.15710859     0.15200
C1021       C  0.36343021  0.59737466  0.97784895     0.30700
C1022       C  0.34188554  0.58357526  0.97163684    -0.35700
C1023       C  0.34441011  0.55784439  0.97432764     0.16700
C1024       C  0.36649559  0.54657553  0.98342711     0.22500
C1025       C  0.38805271  0.56030182  0.98892555    -0.33800
C1026       C  0.38563830  0.58590928  0.98536358     0.16600
O1027       O  0.36539620  0.62163889  0.97698924    -0.25800
C1028       C  0.38926346  0.62562378  0.98326639     0.06400
C1029       C  0.40272534  0.60407807  0.98843992    -0.30700
O1030       O  0.36455590  0.52244603  0.98629063    -0.22500
C1031       C  0.34101981  0.51802576  0.97818660    -0.02500
C1032       C  0.32758301  0.53934951  0.97022100    -0.16900
H1033       H  0.32440188  0.59227575  0.96519972     0.21000
H1034       H  0.40551007  0.55160558  0.99558968     0.19400
H1035       H  0.42223132  0.60215852  0.99420226     0.19400
H1036       H  0.30815183  0.54099432  0.96367396     0.15200
C1037       C  0.48187196  0.83542612  0.51648497     0.30700
C1038       C  0.48568676  0.85544295  0.54193886    -0.35700
C1039       C  0.49261331  0.87769597  0.52352303     0.16700
C1040       C  0.49619319  0.87996779  0.48294490     0.22500
C1041       C  0.49222694  0.85998142  0.45748348    -0.33800
C1042       C  0.48467523  0.83789700  0.47578227     0.16600
O1043       O  0.47400273  0.81333546  0.52710643    -0.25800
C1044       C  0.47134810  0.80160106  0.49273304     0.06400
C1045       C  0.47763184  0.81601143  0.45978875    -0.30700
O1046       O  0.50164417  0.90271809  0.47188919    -0.22500
C1047       C  0.50120926  0.91527272  0.50573465    -0.02500
C1048       C  0.49561480  0.90065984  0.53880160    -0.16900
H1049       H  0.48263023  0.85398749  0.57373885     0.21000
H1050       H  0.49405043  0.86177266  0.42548096     0.19400
H1051       H  0.47670476  0.81118272  0.42861669     0.19400
H1052       H  0.49330207  0.90633082  0.56940553     0.15200
C1053       C  0.32931420  0.98826704  0.51787065     0.30700
C1054       C  0.34890033  0.99412243  0.54336022    -0.35700
C1055       C  0.37093889  0.00133237  0.52476424     0.16700
C1056       C  0.37335152  0.00329965  0.48392022     0.22500
C1057       C  0.35378744  0.99741715  0.45846362    -0.33800
C1058       C  0.33198965  0.98958454  0.47701579     0.16600
O1059       O  0.30764097  0.97949017  0.52871759    -0.25800
C1060       C  0.29647562  0.97479468  0.49433776     0.06400
C1061       C  0.31076742  0.98066008  0.46122462    -0.30700
O1062       O  0.39600526  0.00878848  0.47281251    -0.22500
C1063       C  0.40838488  0.01006103  0.50691414    -0.02500
C1064       C  0.39373238  0.00554799  0.54021289    -0.16900
H1065       H  0.34739118  0.99216444  0.57537670     0.21000
H1066       H  0.35577990  0.99785256  0.42638879     0.19400
H1067       H  0.30633246  0.97817869  0.43009133     0.19400
H1068       H  0.39935216  0.00433142  0.57109224     0.15200
C1069       C  0.47941854  0.83407861  0.01735809     0.30700
C1070       C  0.48150041  0.85444069  0.04249127    -0.35700
C1071       C  0.49245855  0.87546705  0.02578376     0.16700
C1072       C  0.50114580  0.87632552  0.98715647     0.22500
C1073       C  0.49873510  0.85603494  0.96178830    -0.33800
C1074       C  0.48734468  0.83510761  0.97830086     0.16600
O1075       O  0.46950502  0.81269128  0.02680434    -0.25800
C1076       C  0.47067444  0.79995783  0.99322924     0.06400
C1077       C  0.48141645  0.81299002  0.96189004    -0.30700
O1078       O  0.51003873  0.89816109  0.97738216    -0.22500
C1079       C  0.50678401  0.91149199  0.01005392    -0.02500
C1080       C  0.49585036  0.89833008  0.04105768    -0.16900
H1081       H  0.47465852  0.85404596  0.07278212     0.21000
H1082       H  0.50484746  0.85670000  0.93110301     0.19400
H1083       H  0.48454399  0.80695986  0.93166716     0.19400
H1084       H  0.49037010  0.90493259  0.07006935     0.15200
C1085       C  0.38630567  0.99483347  0.96841665     0.30700
C1086       C  0.36811480  0.98469852  0.94365583    -0.35700
C1087       C  0.34493419  0.98068409  0.96119334     0.16700
C1088       C  0.33991949  0.98663674  0.00022648     0.22500
C1089       C  0.35809695  0.99663624  0.02500846    -0.33800
C1090       C  0.38134860  0.00023411  0.00769494     0.16600
O1091       O  0.40965839  0.99852396  0.95902650    -0.25800
C1092       C  0.41981053  0.00625258  0.99278900     0.06400
C1093       C  0.40309229  0.00746557  0.02411214    -0.30700
O1094       O  0.31733974  0.98063192  0.01097870    -0.22500
C1095       C  0.30770346  0.97044653  0.97859883    -0.02500
C1096       C  0.32406298  0.96996225  0.94663993    -0.16900
H1097       H  0.37199182  0.97957186  0.91322111     0.21000
H1098       H  0.35456098  0.00060585  0.05601806     0.19400
H1099       H  0.40670849  0.01198113  0.05489065     0.19400
H1100       H  0.32115758  0.96238665  0.91731721     0.15200
C1101       C  0.51181408  0.99699078  0.71914389     0.30700
C1102       C  0.51180446  0.98183443  0.75319063    -0.35700
C1103       C  0.51547981  0.99380356  0.78951016     0.16700
C1104       C  0.51850635  0.01897909  0.79211303     0.22500
C1105       C  0.51920599  0.03400373  0.75803471    -0.33800
C1106       C  0.51589978  0.02200886  0.72174180     0.16600
O1107       O  0.50784514  0.98991853  0.68227313    -0.25800
C1108       C  0.50979394  0.01063476  0.66109602     0.06400
C1109       C  0.51500921  0.03113584  0.68397153    -0.30700
O1110       O  0.51983067  0.02653962  0.82915965    -0.22500
C1111       C  0.51814542  0.00591016  0.85050652    -0.02500
C1112       C  0.51564229  0.98490990  0.82754228    -0.16900
H1113       H  0.50872227  0.96218732  0.75154078     0.21000
H1114       H  0.52167802  0.05373354  0.75976096     0.19400
H1115       H  0.51726113  0.05004739  0.67421489     0.19400
H1116       H  0.51320329  0.96606687  0.83753080     0.15200
C1117       C  0.52344771  0.01176450  0.22052061     0.30700
C1118       C  0.53685261  0.01076986  0.25617762    -0.35700
C1119       C  0.52288444  0.01089055  0.29130377     0.16700
C1120       C  0.49752335  0.01256470  0.29141514     0.22500
C1121       C  0.48411948  0.01326319  0.25579821    -0.33800
C1122       C  0.49804462  0.01251776  0.22070638     0.16600
O1123       O  0.53265095  0.01120736  0.18416687    -0.25800
C1124       C  0.51283135  0.01115289  0.16095204     0.06400
C1125       C  0.49083537  0.01188336  0.18201329    -0.30700
O1126       O  0.48825195  0.01291486  0.32769129    -0.22500
C1127       C  0.50791207  0.01094643  0.35102335    -0.02500
C1128       C  0.52993200  0.00948348  0.33009979    -0.16900
H1129       H  0.55673585  0.00962934  0.25651183     0.21000
H1130       H  0.46421755  0.01401566  0.25546970     0.19400
H1131       H  0.47225681  0.01187022  0.17040160     0.19400
H1132       H  0.54842214  0.00803216  0.34186555     0.15200
C1133       C  0.46038132  0.34397334  0.49569293     0.30700
C1134       C  0.43504097  0.33840381  0.49436791    -0.35700
C1135       C  0.41889240  0.35867513  0.49176955     0.16700
C1136       C  0.42721402  0.38266748  0.49145506     0.22500
C1137       C  0.45240091  0.38818065  0.49224930    -0.33800
C1138       C  0.46845245  0.36802859  0.49392950     0.16600
O1139       O  0.47884057  0.32808407  0.49790881    -0.25800
C1140       C  0.49889388  0.34225345  0.49684668     0.06400
C1141       C  0.49347095  0.36720312  0.49416243    -0.30700
O1142       O  0.40918565  0.39886018  0.49009784    -0.22500
C1143       C  0.38886467  0.38526294  0.48874925    -0.02500
C1144       C  0.39372809  0.36003904  0.48954936    -0.16900
H1145       H  0.42840336  0.31962825  0.49509253     0.21000
H1146       H  0.45904184  0.40695649  0.49141282     0.19400
H1147       H  0.50618424  0.38252255  0.49289466     0.19400
H1148       H  0.38066240  0.34501357  0.48946462     0.15200
C1149       C  0.53544176  0.18559335  0.51485132     0.30700
C1150       C  0.52840882  0.16559477  0.53894755    -0.35700
C1151       C  0.52057059  0.14444850  0.51898106     0.16700
C1152       C  0.51937653  0.14299976  0.47801377     0.22500
C1153       C  0.52669165  0.16299952  0.45378482    -0.33800
C1154       C  0.53489379  0.18412221  0.47383740     0.16600
O1155       O  0.54382232  0.20693538  0.52748316    -0.25800
C1156       C  0.54906107  0.21931483  0.49419215     0.06400
C1157       C  0.54400326  0.20598905  0.45985416    -0.30700
O1158       O  0.51251595  0.12090701  0.46585999    -0.22500
C1159       C  0.50944642  0.10809489  0.49958266    -0.02500
C1160       C  0.51431178  0.12184738  0.53340303    -0.16900
H1161       H  0.52946635  0.16629427  0.57111206     0.21000
H1162       H  0.52655474  0.16196809  0.42160505     0.19400
H1163       H  0.54666574  0.21162266  0.42914486     0.19400
H1164       H  0.51433744  0.11568472  0.56415955     0.15200
C1165       C  0.65729816  0.42172226  0.49788522     0.30700
C1166       C  0.67920884  0.43545165  0.49524966    -0.35700
C1167       C  0.67655901  0.46121033  0.49557731     0.16700
C1168       C  0.65396388  0.47257354  0.49934307     0.22500
C1169       C  0.63212984  0.45890532  0.50154451    -0.33800
C1170       C  0.63472550  0.43326916  0.50021900     0.16600
O1171       O  0.65528056  0.39746922  0.49715547    -0.25800
C1172       C  0.63107532  0.39356125  0.49828024     0.06400
C1173       C  0.61743907  0.41517282  0.50014753    -0.30700
O1174       O  0.65565164  0.49675801  0.49997252    -0.22500
C1175       C  0.67959055  0.50110408  0.49580886    -0.02500
C1176       C  0.69354832  0.47968697  0.49268576    -0.16900
H1177       H  0.69701538  0.42668618  0.49262287     0.21000
H1178       H  0.61430102  0.46768305  0.50368711     0.19400
H1179       H  0.59763520  0.41720720  0.50125768     0.19400
H1180       H  0.71330145  0.47801531  0.48956847     0.15200
C1181       C  0.46343019  0.34617089  0.00439186     0.30700
C1182       C  0.43811476  0.34128371  0.00769671    -0.35700
C1183       C  0.42235999  0.36162104  0.00315375     0.16700
C1184       C  0.43096092  0.38525074  0.99696026     0.22500
C1185       C  0.45623010  0.39011673  0.99341203    -0.33800
C1186       C  0.47192031  0.36969896  0.99687861     0.16600
O1187       O  0.48141391  0.32983255  0.00648277    -0.25800
C1188       C  0.50163647  0.34302789  0.99955191     0.06400
C1189       C  0.49681122  0.36792372  0.99328398    -0.30700
O1190       O  0.41303404  0.40150565  0.99355838    -0.22500
C1191       C  0.39264933  0.38807779  0.99680094    -0.02500
C1192       C  0.39729549  0.36312485  0.00272264    -0.16900
H1193       H  0.43116964  0.32284480  0.01266706     0.21000
H1194       H  0.46314594  0.40847812  0.98758014     0.19400
H1195       H  0.50979741  0.38256530  0.98706355     0.19400
H1196       H  0.38412457  0.34833207  0.00629871     0.15200
C1197       C  0.54597657  0.18160175  0.01741333     0.30700
C1198       C  0.54145873  0.16118411  0.04229052    -0.35700
C1199       C  0.53510196  0.13925710  0.02308651     0.16700
C1200       C  0.53293146  0.13760789  0.98223508     0.22500
C1201       C  0.53796328  0.15789626  0.95731222    -0.33800
C1202       C  0.54469039  0.17973254  0.97649340     0.16600
O1203       O  0.55228282  0.20386158  0.02901779    -0.25800
C1204       C  0.55540422  0.21634127  0.99508663     0.06400
C1205       C  0.55113660  0.20221189  0.96143521    -0.30700
O1206       O  0.52675536  0.11529604  0.97065058    -0.22500
C1207       C  0.52526073  0.10242001  0.00448967    -0.02500
C1208       C  0.53045606  0.11632301  0.03803017    -0.16900
H1209       H  0.54299006  0.16226919  0.07437051     0.21000
H1210       H  0.53691840  0.15668014  0.92519692     0.19400
H1211       H  0.55254783  0.20774522  0.93046435     0.19400
H1212       H  0.53103389  0.11028624  0.06883181     0.15200
C1213       C  0.60394985  0.31179002  0.78176173     0.30700
C1214       C  0.61824699  0.30803757  0.74747247    -0.35700
C1215       C  0.60626047  0.31178179  0.71087289     0.16700
C1216       C  0.58178188  0.31838234  0.70819767     0.22500
C1217       C  0.56771701  0.32289221  0.74246482    -0.33800
C1218       C  0.57979584  0.31950000  0.77904486     0.16600
O1219       O  0.61097214  0.30799628  0.81896108    -0.25800
C1220       C  0.59122076  0.31388295  0.84032920     0.06400
C1221       C  0.57134803  0.32135637  0.81713653    -0.30700
O1222       O  0.57374345  0.31883510  0.67110169    -0.22500
C1223       C  0.59342880  0.31284882  0.64965687    -0.02500
C1224       C  0.61427033  0.30856235  0.67278335    -0.16900
H1225       H  0.63720492  0.30200655  0.74920040     0.21000
H1226       H  0.54850981  0.32806834  0.74074709     0.19400
H1227       H  0.55307588  0.32644313  0.82693044     0.19400
H1228       H  0.63234365  0.30278816  0.66302253     0.15200
C1229       C  0.57998924  0.31844786  0.28099369     0.30700
C1230       C  0.56722620  0.32374275  0.24557526    -0.35700
C1231       C  0.57899464  0.31685348  0.21013426     0.16700
C1232       C  0.60198923  0.30603728  0.20950372     0.22500
C1233       C  0.61454924  0.30038095  0.24488605    -0.33800
C1234       C  0.60256072  0.30677854  0.28030016     0.16600
O1235       O  0.57223373  0.32271747  0.31759309    -0.25800
C1236       C  0.58993109  0.31330238  0.34050044     0.06400
C1237       C  0.60914331  0.30302896  0.31893587    -0.30700
O1238       O  0.60969341  0.30143949  0.17305614    -0.22500
C1239       C  0.59119763  0.30897932  0.15008024    -0.02500
C1240       C  0.57154925  0.31860615  0.17147768    -0.16900
H1241       H  0.54924504  0.33232425  0.24566251     0.21000
H1242       H  0.63230448  0.29133828  0.24482703     0.19400
H1243       H  0.62547980  0.29393490  0.33020999     0.19400
H1244       H  0.55440041  0.32597575  0.16010410     0.15200
C1245       C  0.65641742  0.42123894  0.00691031     0.30700
C1246       C  0.67804587  0.43534060  0.00846236    -0.35700
C1247       C  0.67496433  0.46099581  0.00663656     0.16700
C1248       C  0.65213160  0.47207702  0.00455291     0.22500
C1249       C  0.63051927  0.45799142  0.00261086    -0.33800
C1250       C  0.63365584  0.43233984  0.00342902     0.16600
O1251       O  0.65503922  0.39694633  0.00700698    -0.25800
C1252       C  0.63110945  0.39245031  0.00284636     0.06400
C1253       C  0.61696050  0.41378680  0.00039134    -0.30700
O1254       O  0.65354229  0.49633527  0.00338408    -0.22500
C1255       C  0.67761288  0.50083754  0.00396822    -0.02500
C1256       C  0.69183113  0.47955908  0.00577953    -0.16900
H1257       H  0.69605403  0.42689030  0.01024242     0.21000
H1258       H  0.61254343  0.46643625  0.99995842     0.19400
H1259       H  0.59722470  0.41534788  0.99678926     0.19400
H1260       H  0.71168563  0.47804887  0.00654238     0.15200
C1261       C  0.88326442  0.93077328  0.50664095     0.30700
C1262       C  0.88766471  0.95616998  0.50718663    -0.35700
C1263       C  0.86675230  0.97123865  0.50770291     0.16700
C1264       C  0.84307826  0.96203091  0.50864786     0.22500
C1265       C  0.83867062  0.93657497  0.50775506    -0.33800
C1266       C  0.85962032  0.92148394  0.50623745     0.16600
O1267       O  0.90014128  0.91338993  0.50523628    -0.25800
C1268       C  0.88716368  0.89270754  0.50318725     0.06400
C1269       C  0.86186317  0.89657891  0.50354666    -0.30700
O1270       O  0.82627188  0.97960153  0.50853681    -0.22500
C1271       C  0.83943744  0.00023481  0.50683600    -0.02500
C1272       C  0.86466826  0.99613973  0.50613000    -0.16900
H1273       H  0.90611130  0.96367161  0.50646495     0.21000
H1274       H  0.82022063  0.92908652  0.50743632     0.19400
H1275       H  0.84731937  0.88300400  0.50230921     0.19400
H1276       H  0.87930695  0.00960793  0.50424683     0.15200
C1277       C  0.67852811  0.04153573  0.51821080     0.30700
C1278       C  0.65764549  0.03959586  0.54256497    -0.35700
C1279       C  0.63659190  0.02972690  0.52474224     0.16700
C1280       C  0.63616304  0.02176105  0.48582929     0.22500
C1281       C  0.65705924  0.02389339  0.46129270    -0.33800
C1282       C  0.67802101  0.03435247  0.47888422     0.16600
O1283       O  0.69987136  0.05100981  0.52856610    -0.25800
C1284       C  0.71315462  0.05036896  0.49531961     0.06400
C1285       C  0.70050914  0.04030333  0.46330433    -0.30700
O1286       O  0.61414341  0.01400506  0.47496288    -0.22500
C1287       C  0.60031436  0.01733382  0.50724236    -0.02500
C1288       C  0.61331072  0.02713101  0.53901946    -0.16900
H1289       H  0.65762981  0.04596718  0.57301601     0.21000
H1290       H  0.65676981  0.01846075  0.43036420     0.19400
H1291       H  0.70695579  0.03776766  0.43311235     0.19400
H1292       H  0.60637181  0.03237313  0.56796052     0.15200
C1293       C  0.73429996  0.20367328  0.49930770     0.30700
C1294       C  0.72618464  0.22564520  0.51712507    -0.35700
C1295       C  0.70445428  0.23606290  0.50136324     0.16700
C1296       C  0.69180773  0.22556771  0.47017930     0.22500
C1297       C  0.70006485  0.20399933  0.45212503    -0.33800
C1298       C  0.72152247  0.19361873  0.46790925     0.16600
O1299       O  0.75305201  0.18965892  0.51074298    -0.25800
C1300       C  0.75206800  0.17050520  0.48615901     0.06400
C1301       C  0.73288681  0.17219321  0.45892748    -0.30700
O1302       O  0.67115489  0.23711661  0.46174549    -0.22500
C1303       C  0.67033822  0.25544586  0.48763868    -0.02500
C1304       C  0.69066936  0.25585329  0.51299975    -0.16900
H1305       H  0.73562731  0.23357558  0.54232092     0.21000
H1306       H  0.68992083  0.19538080  0.42826074     0.19400
H1307       H  0.72748496  0.15897278  0.43663245     0.19400
H1308       H  0.69418923  0.26821004  0.53744910     0.15200
C1309       C  0.92720544  0.13328177  0.48596171     0.30700
C1310       C  0.95256865  0.12846766  0.48747581    -0.35700
C1311       C  0.96806023  0.14908632  0.48528430     0.16700
C1312       C  0.95927628  0.17280002  0.48091362     0.22500
C1313       C  0.93387617  0.17763856  0.47997351    -0.33800
C1314       C  0.91834893  0.15704606  0.48310173     0.16600
O1315       O  0.90943960  0.11676907  0.48783702    -0.25800
C1316       C  0.88890684  0.13013335  0.48690650     0.06400
C1317       C  0.89331137  0.15531778  0.48418306    -0.30700
O1318       O  0.97712509  0.18927791  0.47898467    -0.22500
C1319       C  0.99755765  0.17594353  0.48291733    -0.02500
C1320       C  0.99302133  0.15086233  0.48711202    -0.16900
H1321       H  0.95971929  0.10995730  0.49055376     0.21000
H1322       H  0.92672108  0.19617191  0.47740179     0.19400
H1323       H  0.87999509  0.17011557  0.48277201     0.19400
H1324       H  0.00624397  0.13611308  0.49078437     0.15200
C1325       C  0.87422442  0.97291592  0.98908536     0.30700
C1326       C  0.89521671  0.95832287  0.99522527    -0.35700
C1327       C  0.89193600  0.93285416  0.99100248     0.16700
C1328       C  0.86973847  0.92238071  0.98074335     0.22500
C1329       C  0.84868944  0.93699297  0.97476963    -0.33800
C1330       C  0.85184192  0.96245614  0.97980141     0.16600
O1331       O  0.87290308  0.99705710  0.99285068    -0.25800
C1332       C  0.84925391  0.00203456  0.98652722     0.06400
C1333       C  0.83526067  0.98126317  0.97838682    -0.30700
O1334       O  0.87086599  0.89807904  0.97909595    -0.22500
C1335       C  0.89407419  0.89298341  0.98887998    -0.02500
C1336       C  0.90796567  0.91393267  0.99659844    -0.16900
H1337       H  0.91263678  0.96616488  0.00348395     0.21000
H1338       H  0.83110374  0.92908733  0.96764000     0.19400
H1339       H  0.81575431  0.98023010  0.97256454     0.19400
H1340       H  0.92702781  0.91500606  0.00544327     0.15200
C1341       C  0.64861186  0.01309252  0.01539035     0.30700
C1342       C  0.67060782  0.01564408  0.03695422    -0.35700
C1343       C  0.69050678  0.02610584  0.01615417     0.16700
C1344       C  0.68878084  0.03378596  0.97695641     0.22500
C1345       C  0.66702054  0.03060363  0.95508411    -0.33800
C1346       C  0.64723515  0.01984239  0.97571392     0.16600
O1347       O  0.62712302  0.00603772  0.02993171    -0.25800
C1348       C  0.61196833  0.00759593  0.99886651     0.06400
C1349       C  0.62348825  0.01597972  0.96432680    -0.30700
O1350       O  0.70887611  0.04505388  0.96440213    -0.22500
C1351       C  0.72383692  0.04431789  0.99576573    -0.02500
C1352       C  0.71347044  0.03253462  0.02872766    -0.16900
H1353       H  0.67184589  0.01068968  0.06818475     0.21000
H1354       H  0.66536149  0.03687913  0.92451397     0.19400
H1355       H  0.61512870  0.02039566  0.93588742     0.19400
H1356       H  0.72128455  0.03013583  0.05815747     0.15200
C1357       C  0.73610162  0.20134785  0.00414503     0.30700
C1358       C  0.72619257  0.22147768  0.02500768    -0.35700
C1359       C  0.70534276  0.23283010  0.00788049     0.16700
C1360       C  0.69504359  0.22480540  0.97275949     0.22500
C1361       C  0.70497212  0.20489630  0.95192473    -0.33800
C1362       C  0.72567764  0.19363486  0.96894724     0.16600
O1363       O  0.75464788  0.18708720  0.01554644    -0.25800
C1364       C  0.75596182  0.17005404  0.98721964     0.06400
C1365       C  0.73842480  0.17337448  0.95750339    -0.30700
O1366       O  0.67508331  0.23716630  0.96279679    -0.22500
C1367       C  0.67243626  0.25361306  0.99159904    -0.02500
C1368       C  0.69076896  0.25180905  0.02058815    -0.16900
H1369       H  0.73384642  0.22750615  0.05303233     0.21000
H1370       H  0.69673564  0.19825424  0.92470734     0.19400
H1371       H  0.73495634  0.16190128  0.93191441     0.19400
H1372       H  0.69259961  0.26235605  0.04761838     0.15200
C1373       C  0.79781248  0.08986183  0.77972666     0.30700
C1374       C  0.78315699  0.08622809  0.74604557    -0.35700
C1375       C  0.79474313  0.08988436  0.70926398     0.16700
C1376       C  0.81897852  0.09719301  0.70561482     0.22500
C1377       C  0.83380855  0.10050466  0.73943923    -0.33800
C1378       C  0.82230498  0.09632732  0.77639395     0.16600
O1379       O  0.79064560  0.08723873  0.81697266    -0.25800
C1380       C  0.81085952  0.09167643  0.83793433     0.06400
C1381       C  0.83120128  0.09733981  0.81433262    -0.30700
O1382       O  0.82579896  0.09981727  0.66802331    -0.22500
C1383       C  0.80571848  0.09369269  0.64768454    -0.02500
C1384       C  0.78596190  0.08721442  0.67174780    -0.16900
H1385       H  0.76406572  0.08070693  0.74836311     0.21000
H1386       H  0.85297529  0.10574908  0.73711287     0.19400
H1387       H  0.84970092  0.10177018  0.82380279     0.19400
H1388       H  0.76773161  0.08147273  0.66276309     0.15200
C1389       C  0.81423458  0.07852542  0.20746056     0.30700
C1390       C  0.81984888  0.06482408  0.24191864    -0.35700
C1391       C  0.81403172  0.07594127  0.27826181     0.16700
C1392       C  0.80284878  0.09870567  0.28055428     0.22500
C1393       C  0.79759826  0.11258960  0.24611769    -0.33800
C1394       C  0.80398351  0.10172196  0.20978525     0.16600
O1395       O  0.81782015  0.07153915  0.17037854    -0.25800
C1396       C  0.81027900  0.09072058  0.14866805     0.06400
C1397       C  0.80157619  0.11007935  0.17158153    -0.30700
O1398       O  0.79824929  0.10517530  0.31759008    -0.22500
C1399       C  0.80705394  0.08652797  0.33925841    -0.02500
C1400       C  0.81723107  0.06789337  0.31645092    -0.16900
H1401       H  0.82818646  0.04675224  0.24048854     0.21000
H1402       H  0.78914375  0.13060825  0.24755528     0.19400
H1403       H  0.79395530  0.12745477  0.16146585     0.19400
H1404       H  0.82530902  0.05072864  0.32657369     0.15200
C1405       C  0.92320879  0.15941298  0.99168216     0.30700
C1406       C  0.93740216  0.18107312  0.99244984    -0.35700
C1407       C  0.96282413  0.17815109  0.98585599     0.16700
C1408       C  0.97352070  0.15544636  0.97964485     0.22500
C1409       C  0.95933046  0.13399499  0.97792354    -0.33800
C1410       C  0.93402115  0.13695827  0.98402568     0.16600
O1411       O  0.89914752  0.15757481  0.99743048    -0.25800
C1412       C  0.89465145  0.13363541  0.99296176     0.06400
C1413       C  0.91567456  0.12006946  0.98441933    -0.30700
O1414       O  0.99768680  0.15658389  0.97701121    -0.22500
C1415       C  0.00261487  0.18039654  0.98072179    -0.02500
C1416       C  0.98165890  0.19478335  0.98592308    -0.16900
H1417       H  0.92927147  0.19887446  0.99819174     0.21000
H1418       H  0.96751488  0.11614138  0.97277953     0.19400
H1419       H  0.91717025  0.10049786  0.97915224     0.19400
H1420       H  0.98062331  0.21440080  0.99098108     0.15200
loop_ 
_geom_bond_atom_site_label_1 
_geom_bond_atom_site_label_2 
_geom_bond_distance 
_geom_bond_site_symmetry_2 
_ccdc_geom_bond_type 
O1           C17   1.275       .  A
O1           Zn7   2.020       .  S
C2           O18   1.273       .  A
C2           O15   1.274       .  A
C2         C1380   1.467       .  S
O3           C16   1.274   1_554  A
O3          Cd10   2.077       .  S
O4           C22   1.274       .  A
O4          Cd13   2.079       .  S
O5           C19   1.280   1_554  A
O5           Cd9   2.117       .  S
O6           C17   1.277   1_554  A
O6           Cd9   2.099       .  S
Zn7          O18   2.017       .  S
Zn7          O20   2.026       .  S
Zn7          O12   1.940       .  S
O8           C19   1.273       .  A
O8          Cd13   2.046       .  S
Cd9          O11   2.092       .  S
Cd9          O12   2.020   1_554  S
Cd10         O14   2.074       .  S
Cd10         O23   2.076       .  S
Cd10         O12   2.002   1_554  S
O11          C21   1.278       .  A
O12         Cd13   1.998       .  S
Cd13         O15   2.073       .  S
O14          C21   1.276       .  A
C16          O20   1.274       .  A
C16        C1351   1.473       .  S
C17        C1364   1.479       .  S
C19        C1412   1.475       .  S
C21        C1396   1.471       .  S
C22          O23   1.274   1_556  A
C22        C1332   1.468       .  S
O24          C40   1.274       .  A
O24         Zn30   2.005       .  S
C25          O41   1.273       .  A
C25          O38   1.276       .  A
C25        C1399   1.467       .  S
O26          C39   1.272       .  A
O26         Cd33   2.067       .  S
O27          C45   1.273       .  A
O27         Cd36   2.062       .  S
O28          C42   1.277       .  A
O28         Cd32   2.089       .  S
O29          C40   1.277       .  A
O29         Cd32   2.103       .  S
Zn30         O41   2.016       .  S
Zn30         O43   2.048       .  S
Zn30         O35   1.936       .  S
O31          C42   1.274       .  A
O31         Cd36   2.074       .  S
Cd32         O34   2.086       .  S
Cd32         O35   2.015       .  S
Cd33         O37   2.060       .  S
Cd33         O46   2.086       .  S
Cd33         O35   1.995       .  S
O34          C44   1.276       .  A
O35         Cd36   1.994       .  S
Cd36         O38   2.079       .  S
O37          C44   1.274       .  A
C39          O43   1.276       .  A
C39        C1284   1.470       .  S
C40        C1300   1.477       .  S
C42        C1316   1.472       .  S
C44        C1383   1.464       .  S
C45          O46   1.275       .  A
C45        C1271   1.467       .  S
O47          C63   1.275       .  A
O47         Zn53   2.030       .  S
C48          O64   1.274       .  A
C48          O61   1.278   1_556  A
C48        C1367   1.479       .  S
O49          C62   1.276   1_554  A
O49         Cd56   2.078       .  S
O50          C68   1.276       .  A
O50         Cd59   2.083       .  S
O51          C65   1.275   1_556  A
O51         Cd55   2.066       .  S
O52          C63   1.276       .  A
O52         Cd55   2.083       .  S
Zn53         O64   2.018       .  S
Zn53         O66   2.033       .  S
Zn53         O58   1.942       .  S
O54          C65   1.279       .  A
O54         Cd59   2.102       .  S
Cd55         O57   2.072       .  S
Cd55         O58   1.996       .  S
Cd56         O60   2.088       .  S
Cd56         O69   2.070       .  S
Cd56         O58   1.998   1_554  S
O57          C67   1.274       .  A
O58         Cd59   2.016   1_556  S
Cd59         O61   2.103       .  S
O60          C67   1.275   1_554  A
C62          O66   1.276       .  A
C62        C1204   1.471       .  S
C63        C1220   1.470       .  S
C65        C1252   1.474       .  S
C67        C1188   1.474       .  S
C68          O69   1.275       .  A
C68        C1239   1.468       .  S
O70          C86   1.273       .  A
O70         Zn76   2.006       .  S
C71          O87   1.273       .  A
C71          O84   1.276       .  A
C71        C1303   1.474       .  S
O72          C85   1.277       .  A
O72         Cd79   2.088       .  S
O73          C91   1.277       .  A
O73         Cd82   2.079       .  S
O74          C88   1.277       .  A
O74         Cd78   2.082       .  S
O75          C86   1.276       .  A
O75         Cd78   2.092       .  S
Zn76         O87   2.014       .  S
Zn76         O89   2.031       .  S
Zn76         O81   1.935       .  S
O77          C88   1.277       .  A
O77         Cd82   2.090       .  S
Cd78         O80   2.081       .  S
Cd78         O81   2.000       .  S
Cd79         O83   2.093       .  S
Cd79         O92   2.089       .  S
Cd79         O81   2.000       .  S
O80          C90   1.276       .  A
O81         Cd82   2.014       .  S
Cd82         O84   2.092       .  S
O83          C90   1.276       .  A
C85          O89   1.275       .  A
C85        C1156   1.475       .  S
C86        C1236   1.468       .  S
C88        C1172   1.474       .  S
C90        C1140   1.477       .  S
C91          O92   1.278       .  A
C91        C1223   1.473       .  S
O93         C109   1.275       .  A
O93         Zn99   2.024       .  S
C94         O110   1.274       .  A
C94         O107   1.272   1_545  A
C94        C1124   1.464       .  S
O95         C108   1.277   1_566  A
O95        Cd102   2.090       .  S
O96         C114   1.275       .  A
O96        Cd105   2.071       .  S
O97         C111   1.278       .  A
O97        Cd101   2.105       .  S
O98         C109   1.276   1_556  A
O98        Cd101   2.083       .  S
Zn99        O110   2.029       .  S
Zn99        O112   2.026       .  S
Zn99        O104   1.950       .  S
O100        C111   1.273   1_564  A
O100       Cd105   2.065       .  S
Cd101       O103   2.063       .  S
Cd101       O104   2.006   1_556  S
Cd102       O106   2.064       .  S
Cd102       O115   2.080       .  S
Cd102       O104   2.006   1_566  S
O103        C113   1.272       .  A
O104       Cd105   1.992   1_545  S
Cd105       O107   2.057       .  S
O106        C113   1.272   1_565  A
C108        O112   1.274       .  A
C108       C1348   1.470   1_554  S
C109       C1207   1.470       .  S
C111       C1092   1.474       .  S
C113       C1111   1.460       .  S
C114        O115   1.276   1_554  A
C114       C1079   1.470       .  S
O116        C132   1.273       .  A
O116       Zn122   2.005       .  S
C117        O133   1.272       .  A
C117        O130   1.272   1_545  A
C117       C1108   1.462       .  S
O118        C131   1.275   1_565  A
O118       Cd125   2.082       .  S
O119        C137   1.274       .  A
O119       Cd128   2.069       .  S
O120        C134   1.278       .  A
O120       Cd124   2.092       .  S
O121        C132   1.278       .  A
O121       Cd124   2.110       .  S
Zn122       O133   2.007       .  S
Zn122       O135   2.011       .  S
Zn122       O127   1.938       .  S
O123        C134   1.277   1_565  A
O123       Cd128   2.078       .  S
Cd124       O126   2.074       .  S
Cd124       O127   2.014       .  S
Cd125       O129   2.060       .  S
Cd125       O138   2.096       .  S
Cd125       O127   2.009   1_565  S
O126        C136   1.274       .  A
O127       Cd128   2.000   1_545  S
Cd128       O130   2.063       .  S
O129        C136   1.273   1_565  A
C131        O135   1.273       .  A
C131       C1287   1.470       .  S
C132       C1159   1.476       .  S
C134       C1063   1.472       .  S
C136       C1127   1.463       .  S
C137        O138   1.277       .  A
C137       C1047   1.473       .  S
O139        C155   1.275       .  A
O139       Zn145   2.036       .  S
C140        O156   1.272       .  A
C140        O153   1.276       .  A
C140        C999   1.468       .  S
O141        C154   1.278   1_554  A
O141       Cd148   2.103       .  S
O142        C160   1.276       .  A
O142       Cd151   2.074       .  S
O143        C157   1.276   1_554  A
O143       Cd147   2.083       .  S
O144        C155   1.272   1_554  A
O144       Cd147   2.066       .  S
Zn145       O156   2.007       .  S
Zn145       O158   1.996       .  S
Zn145       O150   1.938       .  S
O146        C157   1.275       .  A
O146       Cd151   2.070       .  S
Cd147       O149   2.061       .  S
Cd147       O150   1.994   1_554  S
Cd148       O152   2.095       .  S
Cd148       O161   2.093       .  S
Cd148       O150   2.019   1_554  S
O149        C159   1.274       .  A
O150       Cd151   1.998       .  S
Cd151       O153   2.087       .  S
O152        C159   1.277       .  A
C154        O158   1.272       .  A
C154        C980   1.472       .  S
C155       C1076   1.467       .  S
C157        C967   1.470       .  S
C159       C1015   1.469       .  S
C160        O161   1.277   1_556  A
C160       C1028   1.471       .  S
O162        C178   1.276       .  A
O162       Zn168   2.038       .  S
C163        O179   1.275       .  A
C163        O176   1.275       .  A
C163       C1012   1.467       .  S
O164        C177   1.277       .  A
O164       Cd171   2.098       .  S
O165        C183   1.273       .  A
O165       Cd174   2.065       .  S
O166        C180   1.275       .  A
O166       Cd170   2.085       .  S
O167        C178   1.274       .  A
O167       Cd170   2.076       .  S
Zn168       O179   2.017       .  S
Zn168       O181   2.034       .  S
Zn168       O173   1.942       .  S
O169        C180   1.276       .  A
O169       Cd174   2.087       .  S
Cd170       O172   2.061       .  S
Cd170       O173   1.994       .  S
Cd171       O175   2.096       .  S
Cd171       O184   2.115       .  S
Cd171       O173   2.017       .  S
O172        C182   1.275       .  A
O173       Cd174   2.001       .  S
Cd174       O176   2.083       .  S
O175        C182   1.278       .  A
C177        O181   1.277       .  A
C177        C935   1.482       .  S
C178       C1044   1.473       .  S
C180        C916   1.475       .  S
C182        C996   1.468       .  S
C183        O184   1.281       .  A
C183        C951   1.475       .  S
O185        C201   1.276       .  A
O185       Zn191   2.027       .  S
C186        O202   1.278       .  A
C186        O199   1.272   1_556  A
C186       C1095   1.478       .  S
O187        C200   1.277   1_554  A
O187       Cd194   2.095       .  S
O188        C206   1.274       .  A
O188       Cd197   2.061       .  S
O189        C203   1.274       .  A
O189       Cd193   2.075       .  S
O190        C201   1.277       .  A
O190       Cd193   2.085       .  S
Zn191       O202   2.060       .  S
Zn191       O204   2.017       .  S
Zn191       O196   1.947       .  S
O192        C203   1.275   1_554  A
O192       Cd197   2.079       .  S
Cd193       O195   2.080       .  S
Cd193       O196   2.000       .  S
Cd194       O198   2.097       .  S
Cd194       O207   2.093       .  S
Cd194       O196   2.018   1_554  S
O195        C205   1.276       .  A
O196       Cd197   1.997   1_556  S
Cd197       O199   2.064       .  S
O198        C205   1.277   1_554  A
C200        O204   1.276       .  A
C200        C983   1.476       .  S
C201        C868   1.471       .  S
C203        C855   1.469   1_565  S
C205        C903   1.476       .  S
C206        O207   1.277       .  A
C206        C884   1.470       .  S
O208        C224   1.274       .  A
O208       Zn214   2.028       .  S
C209        O225   1.275       .  A
C209        O222   1.274       .  A
C209       C1060   1.470       .  S
O210        C223   1.277       .  A
O210       Cd217   2.094       .  S
O211        C229   1.274       .  A
O211       Cd220   2.074       .  S
O212        C226   1.275       .  A
O212       Cd216   2.082       .  S
O213        C224   1.276       .  A
O213       Cd216   2.084       .  S
Zn214       O225   2.023       .  S
Zn214       O227   2.034       .  S
Zn214       O219   1.941       .  S
O215        C226   1.274       .  A
O215       Cd220   2.074       .  S
Cd216       O218   2.052       .  S
Cd216       O219   1.998       .  S
Cd217       O221   2.099       .  S
Cd217       O230   2.092       .  S
Cd217       O219   2.014       .  S
O218        C228   1.273       .  A
O219       Cd220   1.999       .  S
Cd220       O222   2.078       .  S
O221        C228   1.278       .  A
C223        O227   1.276       .  A
C223        C932   1.479       .  S
C224        C887   1.470       .  S
C226        C823   1.469   1_565  S
C228        C839   1.467       .  S
C229        O230   1.277       .  A
C229        C871   1.470       .  S
O231        C247   1.274       .  A
O231       Zn237   2.013       .  S
C232        O248   1.277       .  A
C232        O245   1.278   1_554  A
C232        C772   1.481       .  S
O233        C246   1.273       .  A
O233       Cd240   2.067       .  S
O234        C252   1.276       .  A
O234       Cd243   2.086       .  S
O235        C249   1.274   1_554  A
O235       Cd239   2.059       .  S
O236        C247   1.276       .  A
O236       Cd239   2.079       .  S
Zn237       O248   2.027       .  S
Zn237       O250   2.040       .  S
Zn237       O242   1.936   1_554  S
O238        C249   1.280       .  A
O238       Cd243   2.107       .  S
Cd239       O241   2.087       .  S
Cd239       O242   1.995   1_554  S
Cd240       O244   2.078       .  S
Cd240       O253   2.066       .  S
Cd240       O242   1.987       .  S
O241        C251   1.276   1_554  A
O242       Cd243   2.016       .  S
Cd243       O245   2.100       .  S
O244        C251   1.275       .  A
C246        O250   1.275   1_556  A
C246        C756   1.467       .  S
C247        C804   1.467       .  S
C249       C1335   1.475       .  S
C251        C900   1.474   1_656  S
C252        O253   1.275       .  A
C252        C788   1.469       .  S
O254        C270   1.273       .  A
O254       Zn260   2.015       .  S
C255        O271   1.272       .  A
C255        O268   1.277       .  A
C255        C740   1.470       .  S
O256        C269   1.271       .  A
O256       Cd263   2.043       .  S
O257        C275   1.276       .  A
O257       Cd266   2.090       .  S
O258        C272   1.275       .  A
O258       Cd262   2.071       .  S
O259        C270   1.276       .  A
O259       Cd262   2.089       .  S
Zn260       O271   1.997       .  S
Zn260       O273   2.035       .  S
Zn260       O265   1.935       .  S
O261        C272   1.277       .  A
O261       Cd266   2.076       .  S
Cd262       O264   2.071       .  S
Cd262       O265   1.994       .  S
Cd263       O267   2.075       .  S
Cd263       O276   2.060       .  S
Cd263       O265   1.986       .  S
O264        C274   1.275       .  A
O265       Cd266   2.007       .  S
Cd266       O268   2.092       .  S
O267        C274   1.275       .  A
C269        O273   1.275       .  A
C269        C724   1.463       .  S
C270        C791   1.469       .  S
C272       C1268   1.466       .  S
C274        C836   1.467   1_655  S
C275        O276   1.273       .  A
C275        C807   1.466       .  S
O277        C293   1.273       .  A
O277       Zn283   2.007       .  S
C278        O294   1.273       .  A
C278        O291   1.276   1_554  A
C278        C679   1.470       .  S
O279        C292   1.278   1_556  A
O279       Cd286   2.104       .  S
O280        C298   1.277       .  A
O280       Cd289   2.083       .  S
O281        C295   1.274       .  A
O281       Cd285   2.080       .  S
O282        C293   1.275       .  A
O282       Cd285   2.082       .  S
Zn283       O294   2.011       .  S
Zn283       O296   2.022       .  S
Zn283       O288   1.932       .  S
O284        C295   1.275   1_556  A
O284       Cd289   2.081       .  S
Cd285       O287   2.051       .  S
Cd285       O288   2.000       .  S
Cd286       O290   2.097       .  S
Cd286       O299   2.086       .  S
Cd286       O288   2.013   1_556  S
O287        C297   1.272   1_554  A
O288       Cd289   1.998   1_554  S
Cd289       O291   2.081       .  S
O290        C297   1.279       .  A
C292        O296   1.274       .  A
C292        C775   1.480       .  S
C293        C708   1.465       .  S
C295       C1255   1.471       .  S
C297        C964   1.464       .  S
C298        O299   1.277       .  A
C298        C692   1.471       .  S
O300        C316   1.275       .  A
O300       Zn306   2.018       .  S
C301        O317   1.276       .  A
C301        O314   1.271       .  A
C301        C663   1.464       .  S
O302        C315   1.277       .  A
O302       Cd309   2.097       .  S
O303        C321   1.273       .  A
O303       Cd312   2.059       .  S
O304        C318   1.274       .  A
O304       Cd308   2.074       .  S
O305        C316   1.276       .  A
O305       Cd308   2.093       .  S
Zn306       O317   2.037       .  S
Zn306       O319   2.011       .  S
Zn306       O311   1.937       .  S
O307        C318   1.276       .  A
O307       Cd312   2.085       .  S
Cd308       O310   2.078       .  S
Cd308       O311   1.997       .  S
Cd309       O313   2.080       .  S
Cd309       O322   2.086       .  S
Cd309       O311   2.012       .  S
O310        C320   1.276       .  A
O311       Cd312   1.992       .  S
Cd312       O314   2.050       .  S
O313        C320   1.277       .  A
C315        O319   1.274       .  A
C315        C743   1.476       .  S
C316        C695   1.472       .  S
C318       C1175   1.471       .  S
C320        C919   1.470       .  S
C321        O322   1.276       .  A
C321        C711   1.465       .  S
O323        C339   1.272       .  A
O323       Zn329   2.015       .  S
C324        O340   1.273   1_556  A
C324        O337   1.277       .  A
C324        C615   1.469       .  S
O325        C338   1.271       .  A
O325       Cd332   2.055       .  S
O326        C344   1.277       .  A
O326       Cd335   2.094       .  S
O327        C341   1.276   1_554  A
O327       Cd331   2.075       .  S
O328        C339   1.277       .  A
O328       Cd331   2.087       .  S
Zn329       O340   1.999       .  S
Zn329       O342   2.055       .  S
Zn329       O334   1.941   1_554  S
O330        C341   1.277       .  A
O330       Cd335   2.091       .  S
Cd331       O333   2.076       .  S
Cd331       O334   1.995   1_554  S
Cd332       O336   2.078       .  S
Cd332       O345   2.066       .  S
Cd332       O334   1.993       .  S
O333        C343   1.275   1_554  A
O334       Cd335   2.016       .  S
Cd335       O337   2.095       .  S
O336        C343   1.274       .  A
C338        O342   1.277   1_556  A
C338        C599   1.472       .  S
C339        C644   1.468       .  S
C341        C852   1.473       .  S
C343       C1415   1.468       .  S
C344        O345   1.275       .  A
C344        C628   1.470       .  S
O346        C362   1.273       .  A
O346       Zn352   2.012       .  S
C347        O363   1.275       .  A
C347        O360   1.277       .  A
C347        C583   1.477       .  S
O348        C361   1.276       .  A
O348       Cd355   2.091       .  S
O349        C367   1.277       .  A
O349       Cd358   2.088       .  S
O350        C364   1.273       .  A
O350       Cd354   2.063       .  S
O351        C362   1.276       .  A
O351       Cd354   2.089       .  S
Zn352       O363   2.015       .  S
Zn352       O365   2.020       .  S
Zn352       O357   1.936       .  S
O353        C364   1.280       .  A
O353       Cd358   2.104       .  S
Cd354       O356   2.073       .  S
Cd354       O357   1.998       .  S
Cd355       O359   2.089       .  S
Cd355       O368   2.078       .  S
Cd355       O357   2.001       .  S
O356        C366   1.275       .  A
O357       Cd358   2.016       .  S
Cd358       O360   2.097       .  S
O359        C366   1.276       .  A
C361        O365   1.273       .  A
C361        C564   1.473       .  S
C362        C631   1.470       .  S
C364        C820   1.473       .  S
C366       C1319   1.472   1_455  S
C367        O368   1.276       .  A
C367        C647   1.473       .  S
O369        C385   1.272   1_554  A
O369       Zn375   1.989       .  S
C370        O386   1.272       .  A
C370        O383   1.275       .  A
C370        C551   1.467       .  S
O371        C384   1.274       .  A
O371       Cd378   2.072       .  S
O372        C390   1.274   1_554  A
O372       Cd381   2.069       .  S
O373        C387   1.277       .  A
O373       Cd377   2.090       .  S
O374        C385   1.276       .  A
O374       Cd377   2.096       .  S
Zn375       O386   2.012       .  S
Zn375       O388   2.043       .  S
Zn375       O380   1.936   1_554  S
O376        C387   1.274   1_554  A
O376       Cd381   2.073       .  S
Cd377       O379   2.091       .  S
Cd377       O380   2.016       .  S
Cd378       O382   2.070       .  S
Cd378       O391   2.096       .  S
Cd378       O380   1.995       .  S
O379        C389   1.277       .  A
O380       Cd381   1.995   1_556  S
Cd381       O383   2.084       .  S
O382        C389   1.275       .  A
C384        O388   1.276   1_556  A
C384        C519   1.473       .  S
C385        C612   1.471       .  S
C387       C1191   1.470       .  S
C389        C532   1.468       .  S
C390        O391   1.278       .  A
C390       C1031   1.473       .  S
O392        C408   1.274       .  A
O392       Zn398   2.017       .  S
C393        O409   1.273       .  A
C393        O406   1.275       .  A
C393        C535   1.469       .  S
O394        C407   1.276       .  A
O394       Cd401   2.090       .  S
O395        C413   1.278       .  A
O395       Cd404   2.088       .  S
O396        C410   1.280       .  A
O396       Cd400   2.113       .  S
O397        C408   1.277       .  A
O397       Cd400   2.090       .  S
Zn398       O409   2.004       .  S
Zn398       O411   2.024       .  S
Zn398       O403   1.938       .  S
O399        C410   1.274       .  A
O399       Cd404   2.067       .  S
Cd400       O402   2.094       .  S
Cd400       O403   2.019       .  S
Cd401       O405   2.073       .  S
Cd401       O414   2.086       .  S
Cd401       O403   2.000       .  S
O402        C412   1.278       .  A
O403       Cd404   2.000       .  S
Cd404       O406   2.088       .  S
O405        C412   1.277       .  A
C407        O411   1.273       .  A
C407        C503   1.475       .  S
C408        C580   1.474       .  S
C410       C1143   1.477       .  S
C412        C548   1.473       .  S
C413        O414   1.276       .  A
C413        C948   1.478       .  S
O415        C431   1.273       .  A
O415       Zn421   2.022       .  S
C416        O432   1.275       .  A
C416        O429   1.277   1_556  A
C416        C516   1.471       .  S
O417        C430   1.275   1_654  A
O417       Cd424   2.083       .  S
O418        C436   1.273       .  A
O418       Cd427   2.071       .  S
O419        C433   1.275   1_655  A
O419       Cd423   2.069       .  S
O420        C431   1.272   1_655  A
O420       Cd423   2.055       .  S
Zn421       O432   2.023       .  S
Zn421       O434   2.023       .  S
Zn421       O426   1.947       .  S
O422        C433   1.276   1_554  A
O422       Cd427   2.087       .  S
Cd423       O425   2.060       .  S
Cd423       O426   1.993   1_655  S
Cd424       O428   2.091       .  S
Cd424       O437   2.057   1_655  S
Cd424       O426   2.007   1_654  S
O425        C435   1.273       .  A
O426       Cd427   2.011   1_556  S
Cd427       O429   2.088       .  S
O428        C435   1.276   1_554  A
C430        O434   1.274       .  A
C430        C596   1.470       .  S
C431        C468   1.466       .  S
C433        C759   1.472       .  S
C435        C676   1.466   1_556  S
C436        O437   1.273       .  A
C436        C484   1.463       .  S
O438        C454   1.272       .  A
O438       Zn444   2.020       .  S
C439        O455   1.275       .  A
C439        O452   1.277       .  A
C439        C500   1.470       .  S
O440        C453   1.276   1_655  A
O440       Cd447   2.085       .  S
O441        C459   1.272       .  A
O441       Cd450   2.065       .  S
O442        C456   1.270   1_655  A
O442       Cd446   2.043       .  S
O443        C454   1.270       .  A
O443       Cd446   2.057   1_455  S
Zn444       O455   2.023       .  S
Zn444       O457   2.022       .  S
Zn444       O449   1.938       .  S
O445        C456   1.276       .  A
O445       Cd450   2.093       .  S
Cd446       O448   2.062       .  S
Cd446       O449   1.994   1_655  S
Cd447       O451   2.076       .  S
Cd447       O460   2.061       .  S
Cd447       O449   2.005   1_655  S
O448        C458   1.273       .  A
O449       Cd450   2.013       .  S
Cd450       O452   2.088       .  S
O451        C458   1.275       .  A
C453        O457   1.274       .  A
C453        C567   1.471       .  S
C454        C487   1.461       .  S
C456        C727   1.463       .  S
C458        C660   1.463       .  S
C459        O460   1.271   1_455  A
C459        C471   1.456       .  S
C461        C466   1.381   1_455  A
C461        C462   1.402       .  A
C461        O467   1.318       .  A
C462        C463   1.401       .  A
C462        H473   1.083       .  S
C463        C472   1.360       .  A
C463        C464   1.382   1_455  A
C464        C465   1.401       .  A
C464        O470   1.317       .  A
C465        C466   1.400       .  A
C465        H474   1.083       .  S
C466        C469   1.358       .  A
O467        C468   1.330       .  A
C468        C469   1.390   1_455  A
C469        H475   1.083       .  S
O470        C471   1.328   1_655  A
C471        C472   1.387       .  A
C472        H476   1.083       .  S
C477        C482   1.381       .  A
C477        C478   1.404       .  A
C477        O483   1.320       .  A
C478        C479   1.404       .  A
C478        H489   1.083       .  S
C479        C488   1.363       .  A
C479        C480   1.381       .  A
C480        C481   1.399       .  A
C480        O486   1.316       .  A
C481        C482   1.398       .  A
C481        H490   1.083       .  S
C482        C485   1.356       .  A
O483        C484   1.331       .  A
C484        C485   1.388       .  A
C485        H491   1.083       .  S
O486        C487   1.327       .  A
C487        C488   1.391       .  A
C488        H492   1.083       .  S
C493        C498   1.381       .  A
C493        C494   1.404       .  A
C493        O499   1.319       .  A
C494        C495   1.402       .  A
C494        H505   1.083       .  S
C495        C504   1.364       .  A
C495        C496   1.380       .  A
C496        C497   1.407       .  A
C496        O502   1.321       .  A
C497        C498   1.405       .  A
C497        H506   1.083       .  S
C498        C501   1.366       .  A
O499        C500   1.330       .  A
C500        C501   1.392       .  A
C501        H507   1.083       .  S
O502        C503   1.333       .  A
C503        C504   1.391       .  A
C504        H508   1.083       .  S
C509        C514   1.380   1_556  A
C509        C510   1.403       .  A
C509        O515   1.319       .  A
C510        C511   1.403       .  A
C510        H521   1.083       .  S
C511        C520   1.361       .  A
C511        C512   1.380   1_556  A
C512        C513   1.406       .  A
C512        O518   1.322       .  A
C513        C514   1.406       .  A
C513        H522   1.083       .  S
C514        C517   1.365       .  A
O515        C516   1.331       .  A
C516        C517   1.392   1_556  A
C517        H523   1.083       .  S
O518        C519   1.332   1_554  A
C519        C520   1.391       .  A
C520        H524   1.083       .  S
C525        C530   1.381       .  A
C525        C526   1.399       .  A
C525        O531   1.315       .  A
C526        C527   1.398       .  A
C526        H537   1.083       .  S
C527        C536   1.356       .  A
C527        C528   1.380       .  A
C528        C529   1.408       .  A
C528        O534   1.323       .  A
C529        C530   1.408       .  A
C529        H538   1.082       .  S
C530        C533   1.368       .  A
O531        C532   1.328       .  A
C532        C533   1.393       .  A
C533        H539   1.082       .  S
O534        C535   1.333       .  A
C535        C536   1.388       .  A
C536        H540   1.083       .  S
C541        C546   1.380       .  A
C541        C542   1.407       .  A
C541        O547   1.323       .  A
C542        C543   1.407       .  A
C542        H553   1.083       .  S
C543        C552   1.364       .  A
C543        C544   1.381       .  A
C544        C545   1.400       .  A
C544        O550   1.318       .  A
C545        C546   1.400       .  A
C545        H554   1.083       .  S
C546        C549   1.358       .  A
O547        C548   1.333       .  A
C548        C549   1.389       .  A
C549        H555   1.083       .  S
O550        C551   1.328       .  A
C551        C552   1.393       .  A
C552        H556   1.083       .  S
C557        C562   1.381       .  A
C557        C558   1.405       .  A
C557        O563   1.321       .  A
C558        C559   1.404       .  A
C558        H569   1.083       .  S
C559        C568   1.363       .  A
C559        C560   1.381       .  A
C560        C561   1.405       .  A
C560        O566   1.321       .  A
C561        C562   1.404       .  A
C561        H570   1.083       .  S
C562        C565   1.363       .  A
O563        C564   1.331       .  A
C564        C565   1.392       .  A
C565        H571   1.083       .  S
O566        C567   1.331       .  A
C567        C568   1.391       .  A
C568        H572   1.083       .  S
C573        C578   1.380       .  A
C573        C574   1.401       .  A
C573        O579   1.318       .  A
C574        C575   1.401       .  A
C574        H585   1.083       .  S
C575        C584   1.358       .  A
C575        C576   1.380       .  A
C576        C577   1.408       .  A
C576        O582   1.324       .  A
C577        C578   1.407       .  A
C577        H586   1.083       .  S
C578        C581   1.367       .  A
O579        C580   1.331       .  A
C580        C581   1.394       .  A
C581        H587   1.083       .  S
O582        C583   1.334       .  A
C583        C584   1.392       .  A
C584        H588   1.083       .  S
C589        C594   1.380   1_554  A
C589        C590   1.408       .  A
C589        O595   1.322       .  A
C590        C591   1.407       .  A
C590        H601   1.083       .  S
C591        C600   1.369       .  A
C591        C592   1.380   1_554  A
C592        C593   1.401       .  A
C592        O598   1.316       .  A
C593        C594   1.400       .  A
C593        H602   1.083       .  S
C594        C597   1.361       .  A
O595        C596   1.333   1_554  A
C596        C597   1.389       .  A
C597        H603   1.083       .  S
O598        C599   1.329       .  A
C599        C600   1.394   1_556  A
C600        H604   1.082       .  S
C605        C610   1.380   1_556  A
C605        C606   1.409       .  A
C605        O611   1.325       .  A
C606        C607   1.409       .  A
C606        H617   1.083       .  S
C607        C616   1.370       .  A
C607        C608   1.381   1_556  A
C608        C609   1.396       .  A
C608        O614   1.312       .  A
C609        C610   1.395       .  A
C609        H618   1.083       .  S
C610        C613   1.352       .  A
O611        C612   1.334       .  A
C612        C613   1.388   1_556  A
C613        H619   1.083       .  S
O614        C615   1.327   1_554  A
C615        C616   1.395       .  A
C616        H620   1.082       .  S
C621        C626   1.380       .  A
C621        C622   1.406       .  A
C621        O627   1.322       .  A
C622        C623   1.406       .  A
C622        H633   1.082       .  S
C623        C632   1.366       .  A
C623        C624   1.380       .  A
C624        C625   1.402       .  A
C624        O630   1.317       .  A
C625        C626   1.401       .  A
C625        H634   1.082       .  S
C626        C629   1.360       .  A
O627        C628   1.332       .  A
C628        C629   1.390       .  A
C629        H635   1.083       .  S
O630        C631   1.330       .  A
C631        C632   1.392       .  A
C632        H636   1.082       .  S
C637        C642   1.380       .  A
C637        C638   1.407       .  A
C637        O643   1.321       .  A
C638        C639   1.406       .  A
C638        H649   1.083       .  S
C639        C648   1.366       .  A
C639        C640   1.381       .  A
C640        C641   1.402       .  A
C640        O646   1.318       .  A
C641        C642   1.400       .  A
C641        H650   1.083       .  S
C642        C645   1.361       .  A
O643        C644   1.333       .  A
C644        C645   1.388       .  A
C645        H651   1.083       .  S
O646        C647   1.330       .  A
C647        C648   1.394       .  A
C648        H652   1.083       .  S
C653        C658   1.381       .  A
C653        C654   1.402       .  A
C653        O659   1.317       .  A
C654        C655   1.401       .  A
C654        H665   1.082       .  S
C655        C664   1.362       .  A
C655        C656   1.381       .  A
C656        C657   1.403       .  A
C656        O662   1.316       .  A
C657        C658   1.401       .  A
C657        H666   1.083       .  S
C658        C661   1.361       .  A
O659        C660   1.329       .  A
C660        C661   1.390       .  A
C661        H667   1.083       .  S
O662        C663   1.330       .  A
C663        C664   1.389       .  A
C664        H668   1.082       .  S
C669        C674   1.381   1_554  A
C669        C670   1.405       .  A
C669        O675   1.321       .  A
C670        C671   1.405       .  A
C670        H681   1.083       .  S
C671        C680   1.363       .  A
C671        C672   1.381   1_554  A
C672        C673   1.401       .  A
C672        O678   1.318       .  A
C673        C674   1.401       .  A
C673        H682   1.083       .  S
C674        C677   1.359       .  A
O675        C676   1.332       .  A
C676        C677   1.388   1_554  A
C677        H683   1.083       .  S
O678        C679   1.329   1_556  A
C679        C680   1.394       .  A
C680        H684   1.083       .  S
C685        C690   1.381       .  A
C685        C686   1.403       .  A
C685        O691   1.320       .  A
C686        C687   1.402       .  A
C686        H697   1.083       .  S
C687        C696   1.360       .  A
C687        C688   1.381       .  A
C688        C689   1.406       .  A
C688        O694   1.323       .  A
C689        C690   1.406       .  A
C689        H698   1.083       .  S
C690        C693   1.365       .  A
O691        C692   1.330       .  A
C692        C693   1.392       .  A
C693        H699   1.083       .  S
O694        C695   1.332       .  A
C695        C696   1.390       .  A
C696        H700   1.083       .  S
C701        C706   1.381       .  A
C701        C702   1.407       .  A
C701        O707   1.323       .  A
C702        C703   1.407       .  A
C702        H713   1.082       .  S
C703        C712   1.367       .  A
C703        C704   1.381       .  A
C704        C705   1.398       .  A
C704        O710   1.314       .  A
C705        C706   1.397       .  A
C705        H714   1.083       .  S
C706        C709   1.355       .  A
O707        C708   1.332       .  A
C708        C709   1.386       .  A
C709        H715   1.083       .  S
O710        C711   1.327       .  A
C711        C712   1.393       .  A
C712        H716   1.082       .  S
C717        C722   1.381       .  A
C717        C718   1.406       .  A
C717        O723   1.321       .  A
C718        C719   1.406       .  A
C718        H729   1.083       .  S
C719        C728   1.366   1_655  A
C719        C720   1.381       .  A
C720        C721   1.398       .  A
C720        O726   1.313       .  A
C721        C722   1.396       .  A
C721        H730   1.083       .  S
C722        C725   1.354       .  A
O723        C724   1.331       .  A
C724        C725   1.388       .  A
C725        H731   1.083       .  S
O726        C727   1.328   1_655  A
C727        C728   1.392       .  A
C728        H732   1.082       .  S
C733        C738   1.380       .  A
C733        C734   1.399       .  A
C733        O739   1.314       .  A
C734        C735   1.398       .  A
C734        H745   1.083       .  S
C735        C744   1.357       .  A
C735        C736   1.380       .  A
C736        C737   1.409       .  A
C736        O742   1.324       .  A
C737        C738   1.408       .  A
C737        H746   1.082       .  S
C738        C741   1.369       .  A
O739        C740   1.329       .  A
C740        C741   1.394       .  A
C741        H747   1.082       .  S
O742        C743   1.334       .  A
C743        C744   1.390       .  A
C744        H748   1.083       .  S
C749        C754   1.381   1_556  A
C749        C750   1.402       .  A
C749        O755   1.317       .  A
C750        C751   1.401       .  A
C750        H761   1.083       .  S
C751        C760   1.361       .  A
C751        C752   1.380   1_655  A
C752        C753   1.406   1_556  A
C752        O758   1.321   1_556  A
C753        C754   1.405   1_455  A
C753        H762   1.083       .  S
C754        C757   1.366       .  A
O755        C756   1.329       .  A
C756        C757   1.392   1_556  A
C757        H763   1.083       .  S
O758        C759   1.332   1_554  A
C759        C760   1.391   1_455  A
C760        H764   1.083       .  S
C765        C770   1.379   1_556  A
C765        C766   1.412       .  A
C765        O771   1.326       .  A
C766        C767   1.411       .  A
C766        H777   1.082       .  S
C767        C776   1.373       .  A
C767        C768   1.380   1_556  A
C768        C769   1.401       .  A
C768        O774   1.317       .  A
C769        C770   1.400       .  A
C769        H778   1.082       .  S
C770        C773   1.359       .  A
O771        C772   1.336   1_556  A
C772        C773   1.391       .  A
C773        H779   1.083       .  S
O774        C775   1.330       .  A
C775        C776   1.397   1_554  A
C776        H780   1.082       .  S
C781        C786   1.381       .  A
C781        C782   1.404       .  A
C781        O787   1.321       .  A
C782        C783   1.404       .  A
C782        H793   1.083       .  S
C783        C792   1.362       .  A
C783        C784   1.381       .  A
C784        C785   1.402       .  A
C784        O790   1.320       .  A
C785        C786   1.402       .  A
C785        H794   1.083       .  S
C786        C789   1.360       .  A
O787        C788   1.331       .  A
C788        C789   1.390       .  A
C789        H795   1.083       .  S
O790        C791   1.330       .  A
C791        C792   1.392       .  A
C792        H796   1.083       .  S
C797        C802   1.381       .  A
C797        C798   1.400       .  A
C797        O803   1.316       .  A
C798        C799   1.399       .  A
C798        H809   1.083       .  S
C799        C808   1.358       .  A
C799        C800   1.381       .  A
C800        C801   1.406       .  A
C800        O806   1.322       .  A
C801        C802   1.405       .  A
C801        H810   1.083       .  S
C802        C805   1.365       .  A
O803        C804   1.329       .  A
C804        C805   1.393       .  A
C805        H811   1.083       .  S
O806        C807   1.331       .  A
C807        C808   1.388       .  A
C808        H812   1.083       .  S
C813        C818   1.380       .  A
C813        C814   1.406       .  A
C813        O819   1.319       .  A
C814        C815   1.404       .  A
C814        H825   1.082       .  S
C815        C824   1.364       .  A
C815        C816   1.381       .  A
C816        C817   1.404       .  A
C816        O822   1.319       .  A
C817        C818   1.403       .  A
C817        H826   1.082       .  S
C818        C821   1.365       .  A
O819        C820   1.333       .  A
C820        C821   1.391       .  A
C821        H827   1.082       .  S
O822        C823   1.330       .  A
C823        C824   1.391       .  A
C824        H828   1.082       .  S
C829        C834   1.381       .  A
C829        C830   1.400       .  A
C829        O835   1.316       .  A
C830        C831   1.399       .  A
C830        H841   1.082       .  S
C831        C840   1.357       .  A
C831        C832   1.381       .  A
C832        C833   1.406       .  A
C832        O838   1.322       .  A
C833        C834   1.405       .  A
C833        H842   1.082       .  S
C834        C837   1.364       .  A
O835        C836   1.329       .  A
C836        C837   1.393       .  A
C837        H843   1.082       .  S
O838        C839   1.331       .  A
C839        C840   1.389       .  A
C840        H844   1.083       .  S
C845        C850   1.380       .  A
C845        C846   1.406       .  A
C845        O851   1.322       .  A
C846        C847   1.405       .  A
C846        H857   1.083       .  S
C847        C856   1.364       .  A
C847        C848   1.381       .  A
C848        C849   1.402       .  A
C848        O854   1.319       .  A
C849        C850   1.402       .  A
C849        H858   1.083       .  S
C850        C853   1.360       .  A
O851        C852   1.332       .  A
C852        C853   1.391       .  A
C853        H859   1.083       .  S
O854        C855   1.330       .  A
C855        C856   1.392       .  A
C856        H860   1.083       .  S
C861        C866   1.380       .  A
C861        C862   1.403       .  A
C861        O867   1.318       .  A
C862        C863   1.402       .  A
C862        H873   1.082       .  S
C863        C872   1.362       .  A
C863        C864   1.380       .  A
C864        C865   1.406       .  A
C864        O870   1.321       .  A
C865        C866   1.405       .  A
C865        H874   1.082       .  S
C866        C869   1.365       .  A
O867        C868   1.330       .  A
C868        C869   1.393       .  A
C869        H875   1.082       .  S
O870        C871   1.332       .  A
C871        C872   1.389       .  A
C872        H876   1.082       .  S
C877        C882   1.381       .  A
C877        C878   1.406       .  A
C877        O883   1.322       .  A
C878        C879   1.406       .  A
C878        H889   1.083       .  S
C879        C888   1.364       .  A
C879        C880   1.381       .  A
C880        C881   1.402       .  A
C880        O886   1.319       .  A
C881        C882   1.402       .  A
C881        H890   1.083       .  S
C882        C885   1.359       .  A
O883        C884   1.332       .  A
C884        C885   1.390       .  A
C885        H891   1.083       .  S
O886        C887   1.330       .  A
C887        C888   1.392       .  A
C888        H892   1.083       .  S
C893        C898   1.380   1_554  A
C893        C894   1.403       .  A
C893        O899   1.320       .  A
C894        C895   1.403   1_554  A
C894        H905   1.082       .  S
C895        C904   1.361       .  A
C895        C896   1.380       .  A
C896        C897   1.408       .  A
C896        O902   1.324       .  A
C897        C898   1.408       .  A
C897        H906   1.082       .  S
C898        C901   1.365       .  A
O899        C900   1.331       .  A
C900        C901   1.393   1_554  A
C901        H907   1.082       .  S
O902        C903   1.333       .  A
C903        C904   1.391       .  A
C904        H908   1.082       .  S
C909        C914   1.380       .  A
C909        C910   1.406       .  A
C909        O915   1.321       .  A
C910        C911   1.404       .  A
C910        H921   1.082       .  S
C911        C920   1.364       .  A
C911        C912   1.380       .  A
C912        C913   1.404       .  A
C912        O918   1.319       .  A
C913        C914   1.404       .  A
C913        H922   1.082       .  S
C914        C917   1.364       .  A
O915        C916   1.332       .  A
C916        C917   1.392       .  A
C917        H923   1.082       .  S
O918        C919   1.331       .  A
C919        C920   1.391       .  A
C920        H924   1.082       .  S
C925        C930   1.380       .  A
C925        C926   1.403       .  A
C925        O931   1.319       .  A
C926        C927   1.402       .  A
C926        H937   1.083       .  S
C927        C936   1.361       .  A
C927        C928   1.380       .  A
C928        C929   1.410       .  A
C928        O934   1.325       .  A
C929        C930   1.410       .  A
C929        H938   1.083       .  S
C930        C933   1.370       .  A
O931        C932   1.331       .  A
C932        C933   1.396       .  A
C933        H939   1.083       .  S
O934        C935   1.335       .  A
C935        C936   1.392       .  A
C936        H940   1.083       .  S
C941        C946   1.380       .  A
C941        C942   1.409       .  A
C941        O947   1.323       .  A
C942        C943   1.408       .  A
C942        H953   1.082       .  S
C943        C952   1.369       .  A
C943        C944   1.380       .  A
C944        C945   1.404       .  A
C944        O950   1.319       .  A
C945        C946   1.403       .  A
C945        H954   1.082       .  S
C946        C949   1.363       .  A
O947        C948   1.334       .  A
C948        C949   1.391       .  A
C949        H955   1.082       .  S
O950        C951   1.331       .  A
C951        C952   1.393       .  A
C952        H956   1.082       .  S
C957        C962   1.381       .  A
C957        C958   1.403       .  A
C957        O963   1.317       .  A
C958        C959   1.402       .  A
C958        H969   1.082       .  S
C959        C968   1.361       .  A
C959        C960   1.381   1_556  A
C960        C961   1.404       .  A
C960        O966   1.319       .  A
C961        C962   1.403   1_554  A
C961        H970   1.082       .  S
C962        C965   1.364   1_556  A
O963        C964   1.330       .  A
C964        C965   1.389   1_556  A
C965        H971   1.082       .  S
O966        C967   1.331   1_554  A
C967        C968   1.392       .  A
C968        H972   1.083       .  S
C973        C978   1.380       .  A
C973        C974   1.399       .  A
C973        O979   1.314       .  A
C974        C975   1.398       .  A
C974        H985   1.083       .  S
C975        C984   1.357       .  A
C975        C976   1.380       .  A
C976        C977   1.410   1_556  A
C976        O982   1.324   1_556  A
C977        C978   1.409   1_554  A
C977        H986   1.083       .  S
C978        C981   1.371   1_556  A
O979        C980   1.329       .  A
C980        C981   1.395   1_556  A
C981        H987   1.082       .  S
O982        C983   1.334   1_554  A
C983        C984   1.390       .  A
C984        H988   1.083       .  S
C989        C994   1.381       .  A
C989        C990   1.405       .  A
C989        O995   1.322       .  A
C990        C991   1.405       .  A
C990       H1001   1.083       .  S
C991       C1000   1.362       .  A
C991        C992   1.381       .  A
C992        C993   1.401       .  A
C992        O998   1.319       .  A
C993        C994   1.401       .  A
C993       H1002   1.082       .  S
C994        C997   1.358       .  A
O995        C996   1.332       .  A
C996        C997   1.389       .  A
C997       H1003   1.083       .  S
O998        C999   1.329       .  A
C999       C1000   1.392       .  A
C1000      H1004   1.083       .  S
C1005      C1010   1.380       .  A
C1005      C1006   1.408       .  A
C1005      O1011   1.322       .  A
C1006      C1007   1.407       .  A
C1006      H1017   1.082       .  S
C1007      C1016   1.368       .  A
C1007      C1008   1.381       .  A
C1008      C1009   1.399       .  A
C1008      O1014   1.315       .  A
C1009      C1010   1.398       .  A
C1009      H1018   1.083       .  S
C1010      C1013   1.357       .  A
O1011      C1012   1.333       .  A
C1012      C1013   1.387       .  A
C1013      H1019   1.083       .  S
O1014      C1015   1.329       .  A
C1015      C1016   1.393       .  A
C1016      H1020   1.082       .  S
C1021      C1026   1.380       .  A
C1021      C1022   1.407       .  A
C1021      O1027   1.323       .  A
C1022      C1023   1.407       .  A
C1022      H1033   1.082       .  S
C1023      C1032   1.367       .  A
C1023      C1024   1.380       .  A
C1024      C1025   1.402       .  A
C1024      O1030   1.318       .  A
C1025      C1026   1.402       .  A
C1025      H1034   1.082       .  S
C1026      C1029   1.360       .  A
O1027      C1028   1.332       .  A
C1028      C1029   1.390       .  A
C1029      H1035   1.083       .  S
O1030      C1031   1.330       .  A
C1031      C1032   1.393       .  A
C1032      H1036   1.082       .  S
C1037      C1042   1.380       .  A
C1037      C1038   1.405       .  A
C1037      O1043   1.320       .  A
C1038      C1039   1.404       .  A
C1038      H1049   1.083       .  S
C1039      C1048   1.363       .  A
C1039      C1040   1.381       .  A
C1040      C1041   1.405       .  A
C1040      O1046   1.321       .  A
C1041      C1042   1.404       .  A
C1041      H1050   1.082       .  S
C1042      C1045   1.364       .  A
O1043      C1044   1.332       .  A
C1044      C1045   1.392       .  A
C1045      H1051   1.083       .  S
O1046      C1047   1.331       .  A
C1047      C1048   1.393       .  A
C1048      H1052   1.083       .  S
C1053      C1058   1.381       .  A
C1053      C1054   1.405       .  A
C1053      O1059   1.321       .  A
C1054      C1055   1.405   1_565  A
C1054      H1065   1.082       .  S
C1055      C1064   1.364       .  A
C1055      C1056   1.381       .  A
C1056      C1057   1.403   1_545  A
C1056      O1062   1.320       .  A
C1057      C1058   1.403       .  A
C1057      H1066   1.082       .  S
C1058      C1061   1.361       .  A
O1059      C1060   1.331       .  A
C1060      C1061   1.391       .  A
C1061      H1067   1.083       .  S
O1062      C1063   1.331       .  A
C1063      C1064   1.392       .  A
C1064      H1068   1.082       .  S
C1069      C1074   1.381   1_554  A
C1069      C1070   1.402       .  A
C1069      O1075   1.317       .  A
C1070      C1071   1.401       .  A
C1070      H1081   1.083       .  S
C1071      C1080   1.361       .  A
C1071      C1072   1.380   1_554  A
C1072      C1073   1.406       .  A
C1072      O1078   1.320       .  A
C1073      C1074   1.404       .  A
C1073      H1082   1.083       .  S
C1074      C1077   1.365       .  A
O1075      C1076   1.330   1_554  A
C1076      C1077   1.391       .  A
C1077      H1083   1.082       .  S
O1078      C1079   1.332   1_556  A
C1079      C1080   1.391       .  A
C1080      H1084   1.083       .  S
C1085      C1090   1.380   1_566  A
C1085      C1086   1.408       .  A
C1085      O1091   1.323       .  A
C1086      C1087   1.407       .  A
C1086      H1097   1.082       .  S
C1087      C1096   1.368       .  A
C1087      C1088   1.380   1_556  A
C1088      C1089   1.405       .  A
C1088      O1094   1.319       .  A
C1089      C1090   1.404   1_565  A
C1089      H1098   1.082   1_565  S
C1090      C1093   1.364       .  A
O1091      C1092   1.332   1_565  A
C1092      C1093   1.391   1_556  A
C1093      H1099   1.082       .  S
O1094      C1095   1.332   1_554  A
C1095      C1096   1.394       .  A
C1096      H1100   1.082       .  S
C1101      C1106   1.381   1_565  A
C1101      C1102   1.403       .  A
C1101      O1107   1.318       .  A
C1102      C1103   1.402       .  A
C1102      H1113   1.083       .  S
C1103      C1112   1.361       .  A
C1103      C1104   1.381   1_565  A
C1104      C1105   1.400       .  A
C1104      O1110   1.316       .  A
C1105      C1106   1.399       .  A
C1105      H1114   1.083       .  S
C1106      C1109   1.358       .  A
O1107      C1108   1.330   1_565  A
C1108      C1109   1.388       .  A
C1109      H1115   1.083       .  S
O1110      C1111   1.328       .  A
C1111      C1112   1.390   1_545  A
C1112      H1116   1.083       .  S
C1117      C1122   1.381       .  A
C1117      C1118   1.402       .  A
C1117      O1123   1.319       .  A
C1118      C1119   1.402       .  A
C1118      H1129   1.082       .  S
C1119      C1128   1.359       .  A
C1119      C1120   1.381       .  A
C1120      C1121   1.401       .  A
C1120      O1126   1.318       .  A
C1121      C1122   1.401       .  A
C1121      H1130   1.082       .  S
C1122      C1125   1.358       .  A
O1123      C1124   1.330       .  A
C1124      C1125   1.389       .  A
C1125      H1131   1.083       .  S
O1126      C1127   1.329       .  A
C1127      C1128   1.390       .  A
C1128      H1132   1.083       .  S
C1133      C1138   1.380       .  A
C1133      C1134   1.411       .  A
C1133      O1139   1.325       .  A
C1134      C1135   1.410       .  A
C1134      H1145   1.082       .  S
C1135      C1144   1.372       .  A
C1135      C1136   1.380       .  A
C1136      C1137   1.402       .  A
C1136      O1142   1.317       .  A
C1137      C1138   1.400       .  A
C1137      H1146   1.082       .  S
C1138      C1141   1.360       .  A
O1139      C1140   1.335       .  A
C1140      C1141   1.389       .  A
C1141      H1147   1.083       .  S
O1142      C1143   1.330       .  A
C1143      C1144   1.396       .  A
C1144      H1148   1.082       .  S
C1149      C1154   1.380       .  A
C1149      C1150   1.402       .  A
C1149      O1155   1.320       .  A
C1150      C1151   1.402       .  A
C1150      H1161   1.083       .  S
C1151      C1160   1.359       .  A
C1151      C1152   1.380       .  A
C1152      C1153   1.409       .  A
C1152      O1158   1.325       .  A
C1153      C1154   1.409       .  A
C1153      H1162   1.082       .  S
C1154      C1157   1.366       .  A
O1155      C1156   1.330       .  A
C1156      C1157   1.395       .  A
C1157      H1163   1.082       .  S
O1158      C1159   1.334       .  A
C1159      C1160   1.391       .  A
C1160      H1164   1.083       .  S
C1165      C1170   1.380       .  A
C1165      C1166   1.408       .  A
C1165      O1171   1.323       .  A
C1166      C1167   1.407       .  A
C1166      H1177   1.082       .  S
C1167      C1176   1.367       .  A
C1167      C1168   1.380       .  A
C1168      C1169   1.402       .  A
C1168      O1174   1.318       .  A
C1169      C1170   1.401       .  A
C1169      H1178   1.082       .  S
C1170      C1173   1.360       .  A
O1171      C1172   1.333       .  A
C1172      C1173   1.390       .  A
C1173      H1179   1.083       .  S
O1174      C1175   1.329       .  A
C1175      C1176   1.394       .  A
C1176      H1180   1.082       .  S
C1181      C1186   1.380   1_554  A
C1181      C1182   1.406       .  A
C1181      O1187   1.322       .  A
C1182      C1183   1.405       .  A
C1182      H1193   1.082       .  S
C1183      C1192   1.365       .  A
C1183      C1184   1.381   1_554  A
C1184      C1185   1.403       .  A
C1184      O1190   1.319       .  A
C1185      C1186   1.403       .  A
C1185      H1194   1.082       .  S
C1186      C1189   1.362       .  A
O1187      C1188   1.332   1_554  A
C1188      C1189   1.392       .  A
C1189      H1195   1.083       .  S
O1190      C1191   1.331       .  A
C1191      C1192   1.392   1_556  A
C1192      H1196   1.082       .  S
C1197      C1202   1.380   1_554  A
C1197      C1198   1.404       .  A
C1197      O1203   1.320       .  A
C1198      C1199   1.403       .  A
C1198      H1209   1.082       .  S
C1199      C1208   1.363       .  A
C1199      C1200   1.380   1_554  A
C1200      C1201   1.405       .  A
C1200      O1206   1.320       .  A
C1201      C1202   1.404       .  A
C1201      H1210   1.082       .  S
C1202      C1205   1.363       .  A
O1203      C1204   1.331   1_554  A
C1204      C1205   1.391       .  A
C1205      H1211   1.082       .  S
O1206      C1207   1.331   1_556  A
C1207      C1208   1.391       .  A
C1208      H1212   1.083       .  S
C1213      C1218   1.381       .  A
C1213      C1214   1.405       .  A
C1213      O1219   1.321       .  A
C1214      C1215   1.404       .  A
C1214      H1225   1.082       .  S
C1215      C1224   1.363       .  A
C1215      C1216   1.380       .  A
C1216      C1217   1.404       .  A
C1216      O1222   1.320       .  A
C1217      C1218   1.404       .  A
C1217      H1226   1.082       .  S
C1218      C1221   1.363       .  A
O1219      C1220   1.331       .  A
C1220      C1221   1.390       .  A
C1221      H1227   1.082       .  S
O1222      C1223   1.331       .  A
C1223      C1224   1.392       .  A
C1224      H1228   1.083       .  S
C1229      C1234   1.381       .  A
C1229      C1230   1.404       .  A
C1229      O1235   1.321       .  A
C1230      C1231   1.404       .  A
C1230      H1241   1.083       .  S
C1231      C1240   1.362       .  A
C1231      C1232   1.381       .  A
C1232      C1233   1.402       .  A
C1232      O1238   1.319       .  A
C1233      C1234   1.402       .  A
C1233      H1242   1.083       .  S
C1234      C1237   1.359       .  A
O1235      C1236   1.331       .  A
C1236      C1237   1.390       .  A
C1237      H1243   1.083       .  S
O1238      C1239   1.330       .  A
C1239      C1240   1.391       .  A
C1240      H1244   1.083       .  S
C1245      C1250   1.381       .  A
C1245      C1246   1.405       .  A
C1245      O1251   1.322       .  A
C1246      C1247   1.405       .  A
C1246      H1257   1.082       .  S
C1247      C1256   1.363       .  A
C1247      C1248   1.381       .  A
C1248      C1249   1.404       .  A
C1248      O1254   1.321       .  A
C1249      C1250   1.404       .  A
C1249      H1258   1.083   1_554  S
C1250      C1253   1.361       .  A
O1251      C1252   1.331       .  A
C1252      C1253   1.393       .  A
C1253      H1259   1.083   1_554  S
O1254      C1255   1.331       .  A
C1255      C1256   1.391       .  A
C1256      H1260   1.082       .  S
C1261      C1266   1.381       .  A
C1261      C1262   1.401       .  A
C1261      O1267   1.317       .  A
C1262      C1263   1.401       .  A
C1262      H1273   1.083       .  S
C1263      C1272   1.358       .  A
C1263      C1264   1.381       .  A
C1264      C1265   1.404       .  A
C1264      O1270   1.321       .  A
C1265      C1266   1.404       .  A
C1265      H1274   1.082       .  S
C1266      C1269   1.362       .  A
O1267      C1268   1.329       .  A
C1268      C1269   1.391       .  A
C1269      H1275   1.082       .  S
O1270      C1271   1.331   1_565  A
C1271      C1272   1.389   1_545  A
C1272      H1276   1.083   1_565  S
C1277      C1282   1.381       .  A
C1277      C1278   1.402       .  A
C1277      O1283   1.317       .  A
C1278      C1279   1.401       .  A
C1278      H1289   1.082       .  S
C1279      C1288   1.360       .  A
C1279      C1280   1.380       .  A
C1280      C1281   1.407       .  A
C1280      O1286   1.322       .  A
C1281      C1282   1.406       .  A
C1281      H1290   1.082       .  S
C1282      C1285   1.367       .  A
O1283      C1284   1.330       .  A
C1284      C1285   1.392       .  A
C1285      H1291   1.082       .  S
O1286      C1287   1.332       .  A
C1287      C1288   1.390       .  A
C1288      H1292   1.083       .  S
C1293      C1298   1.380       .  A
C1293      C1294   1.411       .  A
C1293      O1299   1.327       .  A
C1294      C1295   1.411       .  A
C1294      H1305   1.083       .  S
C1295      C1304   1.370       .  A
C1295      C1296   1.381       .  A
C1296      C1297   1.398       .  A
C1296      O1302   1.315       .  A
C1297      C1298   1.398       .  A
C1297      H1306   1.083       .  S
C1298      C1301   1.354       .  A
O1299      C1300   1.335       .  A
C1300      C1301   1.389       .  A
C1301      H1307   1.083       .  S
O1302      C1303   1.329       .  A
C1303      C1304   1.396       .  A
C1304      H1308   1.082       .  S
C1309      C1314   1.380       .  A
C1309      C1310   1.404       .  A
C1309      O1315   1.319       .  A
C1310      C1311   1.403       .  A
C1310      H1321   1.082       .  S
C1311      C1320   1.362       .  A
C1311      C1312   1.380       .  A
C1312      C1313   1.405       .  A
C1312      O1318   1.322       .  A
C1313      C1314   1.405       .  A
C1313      H1322   1.082       .  S
C1314      C1317   1.364       .  A
O1315      C1316   1.331       .  A
C1316      C1317   1.391       .  A
C1317      H1323   1.082       .  S
O1318      C1319   1.332       .  A
C1319      C1320   1.391       .  A
C1320      H1324   1.082   1_655  S
C1325      C1330   1.380       .  A
C1325      C1326   1.403       .  A
C1325      O1331   1.321       .  A
C1326      C1327   1.404       .  A
C1326      H1337   1.076   1_556  S
C1327      C1336   1.359       .  A
C1327      C1328   1.379       .  A
C1328      C1329   1.406       .  A
C1328      O1334   1.323       .  A
C1329      C1330   1.406       .  A
C1329      H1338   1.076       .  S
C1330      C1333   1.363       .  A
O1331      C1332   1.330   1_565  A
C1332      C1333   1.391   1_545  A
C1333      H1339   1.080       .  S
O1334      C1335   1.332       .  A
C1335      C1336   1.393       .  A
C1336      H1340   1.080   1_556  S
C1341      C1346   1.381   1_554  A
C1341      C1342   1.406       .  A
C1341      O1347   1.321       .  A
C1342      C1343   1.405       .  A
C1342      H1353   1.082       .  S
C1343      C1352   1.364       .  A
C1343      C1344   1.380   1_554  A
C1344      C1345   1.404       .  A
C1344      O1350   1.319       .  A
C1345      C1346   1.404       .  A
C1345      H1354   1.082       .  S
C1346      C1349   1.363       .  A
O1347      C1348   1.331   1_554  A
C1348      C1349   1.391       .  A
C1349      H1355   1.083       .  S
O1350      C1351   1.331       .  A
C1351      C1352   1.392   1_556  A
C1352      H1356   1.082       .  S
C1357      C1362   1.380   1_554  A
C1357      C1358   1.411       .  A
C1357      O1363   1.326       .  A
C1358      C1359   1.410       .  A
C1358      H1369   1.083       .  S
C1359      C1368   1.371       .  A
C1359      C1360   1.380   1_554  A
C1360      C1361   1.401       .  A
C1360      O1366   1.317       .  A
C1361      C1362   1.400       .  A
C1361      H1370   1.083       .  S
C1362      C1365   1.359       .  A
O1363      C1364   1.335   1_554  A
C1364      C1365   1.391       .  A
C1365      H1371   1.083       .  S
O1366      C1367   1.330       .  A
C1367      C1368   1.396   1_556  A
C1368      H1372   1.082       .  S
C1373      C1378   1.381       .  A
C1373      C1374   1.399       .  A
C1373      O1379   1.316       .  A
C1374      C1375   1.398       .  A
C1374      H1385   1.083       .  S
C1375      C1384   1.356       .  A
C1375      C1376   1.381       .  A
C1376      C1377   1.406       .  A
C1376      O1382   1.322       .  A
C1377      C1378   1.406       .  A
C1377      H1386   1.083       .  S
C1378      C1381   1.364       .  A
O1379      C1380   1.328       .  A
C1380      C1381   1.393       .  A
C1381      H1387   1.083       .  S
O1382      C1383   1.332       .  A
C1383      C1384   1.387       .  A
C1384      H1388   1.083       .  S
C1389      C1394   1.381       .  A
C1389      C1390   1.404       .  A
C1389      O1395   1.319       .  A
C1390      C1391   1.402       .  A
C1390      H1401   1.083       .  S
C1391      C1400   1.362       .  A
C1391      C1392   1.381       .  A
C1392      C1393   1.404       .  A
C1392      O1398   1.319       .  A
C1393      C1394   1.403       .  A
C1393      H1402   1.083       .  S
C1394      C1397   1.363       .  A
O1395      C1396   1.331       .  A
C1396      C1397   1.391       .  A
C1397      H1403   1.083       .  S
O1398      C1399   1.331       .  A
C1399      C1400   1.390       .  A
C1400      H1404   1.083       .  S
C1405      C1410   1.380       .  A
C1405      C1406   1.408       .  A
C1405      O1411   1.325       .  A
C1406      C1407   1.408       .  A
C1406      H1417   1.082       .  S
C1407      C1416   1.366       .  A
C1407      C1408   1.381       .  A
C1408      C1409   1.400       .  A
C1408      O1414   1.318       .  A
C1409      C1410   1.400       .  A
C1409      H1418   1.082       .  S
C1410      C1413   1.355       .  A
O1411      C1412   1.333       .  A
C1412      C1413   1.391       .  A
C1413      H1419   1.083       .  S
O1414      C1415   1.328   1_655  A
C1415      C1416   1.393   1_455  A
C1416      H1420   1.082       .  S
