geometry optimzed in LAMMPS
_audit_creation_date              2020-11-30 
_audit_creation_method            'lammps2cif' 
_symmetry_space_group_name_H-M    'P1' 
_symmetry_Int_Tables_number       1 
_symmetry_cell_setting            triclinic 
loop_ 
_symmetry_equiv_pos_as_xyz 
  x,y,z 
_cell_length_a                    59.67299059 
_cell_length_b                    59.649683926466636 
_cell_length_c                    46.809574322547775 
_cell_angle_alpha                 89.99680073409327 
_cell_angle_beta                  90.0496610147314 
_cell_angle_gamma                 119.92874817422448 
loop_ 
_atom_site_label 
_atom_site_type_symbol 
_atom_site_fract_x 
_atom_site_fract_y 
_atom_site_fract_z 
_atom_site_charge 
C1          C  0.44293582  0.23021109  0.13403895     0.03700
C2          C  0.44612120  0.21978323  0.10836132    -0.12500
C3          C  0.44574836  0.19606483  0.10836588     0.01200
C4          C  0.44302313  0.18314352  0.13418220    -0.11000
C5          C  0.44051288  0.19353334  0.15999530     0.03600
C6          C  0.44059068  0.21711754  0.15986840    -0.10400
H7          H  0.44893690  0.23009255  0.08844794     0.09200
H8          H  0.44371657  0.16534486  0.13426698     0.06800
H9          H  0.43880454  0.22525735  0.17991227     0.06600
C10         C  0.26280028  0.86370161  0.36867168     0.03700
C11         C  0.25038970  0.85233660  0.39453207    -0.12500
C12         C  0.22726436  0.82845847  0.39468403     0.01200
C13         C  0.21570558  0.81677466  0.36865132    -0.11000
C14         C  0.22765183  0.82795696  0.34260192     0.03600
C15         C  0.25145708  0.85124906  0.34273816    -0.10400
H16         H  0.25949137  0.86134680  0.41460074     0.09200
H17         H  0.19819815  0.79803200  0.36868058     0.06800
H18         H  0.26135100  0.85941700  0.32275444     0.06600
C19         C  0.87347942  0.19256956  0.11443244     0.03700
C20         C  0.88391341  0.20512300  0.14054781    -0.12500
C21         C  0.90692745  0.22901730  0.14113960     0.01200
C22         C  0.91946723  0.24018885  0.11541121    -0.11000
C23         C  0.90878219  0.22849329  0.08912401     0.03600
C24         C  0.88581904  0.20447750  0.08869987    -0.10400
H25         H  0.87360181  0.19671799  0.16027780     0.09200
H26         H  0.93701054  0.25891676  0.11576393     0.06800
H27         H  0.87685516  0.19575039  0.06851570     0.06600
C28         C  0.69952710  0.82552374  0.37928971     0.03700
C29         C  0.69776053  0.83697727  0.35385777    -0.12500
C30         C  0.69616563  0.85963863  0.35467956     0.01200
C31         C  0.69672611  0.87093238  0.38110841    -0.11000
C32         C  0.69805270  0.85942748  0.40671754     0.03600
C33         C  0.69995986  0.83691417  0.40566445    -0.10400
H34         H  0.69708381  0.82795305  0.33350270     0.09200
H35         H  0.69545429  0.88842667  0.38174667     0.06800
H36         H  0.70136243  0.82803991  0.42525759     0.06600
C37         C  0.90829367  0.67083870  0.12425666     0.03700
C38         C  0.89568273  0.66873498  0.15029764    -0.12500
C39         C  0.87133447  0.66696867  0.15052981     0.01200
C40         C  0.86019792  0.66850255  0.12474507    -0.11000
C41         C  0.87269055  0.67071908  0.09872842     0.03600
C42         C  0.89679586  0.67207018  0.09856565    -0.10400
H43         H  0.90402114  0.66686518  0.17009239     0.09200
H44         H  0.84104416  0.66632668  0.12479498     0.06800
H45         H  0.90610139  0.67297723  0.07834804     0.06600
C46         C  0.23986636  0.40117600  0.37753677     0.03700
C47         C  0.25293774  0.40386344  0.35170282    -0.12500
C48         C  0.27708123  0.40528098  0.35166078     0.01200
C49         C  0.28775906  0.40313842  0.37743235    -0.11000
C50         C  0.27493877  0.40026411  0.40338093     0.03600
C51         C  0.25113477  0.39978609  0.40341587    -0.10400
H52         H  0.24468738  0.40562951  0.33177528     0.09200
H53         H  0.30653249  0.40442504  0.37734220     0.06800
H54         H  0.24134462  0.39817718  0.42345836     0.06600
O55         O  0.96907396  0.34656855  0.33111998    -0.78000
C56         C  0.98288253  0.34906515  0.42428150     0.83100
O57         O  0.96188498  0.41734228  0.36838843    -0.79100
O58         O  0.03675797  0.43521916  0.42532956    -0.80600
O59         O  0.06126965  0.40068829  0.34522147    -0.80400
O60         O  0.00578731  0.36826673  0.30688988    -0.79000
Zn61       Zn  0.97391787  0.36724964  0.36700206     1.55700
O62         O  0.05981469  0.40101425  0.39280968    -0.80400
Cd63       Cd  0.02751526  0.40025789  0.33291257     1.59700
Cd64       Cd  0.00100062  0.42947625  0.36612063     1.59600
O65         O  0.03753367  0.43313374  0.30883047    -0.79200
O66         O  0.00687730  0.39926984  0.36710531    -1.90900
Cd67       Cd  0.02627049  0.40139508  0.40275446     1.59900
O68         O  0.01628588  0.45080686  0.32932698    -0.80300
O69         O  0.00410473  0.36994120  0.42888141    -0.79000
C70         C  0.94232036  0.39466963  0.37025694     0.83500
C71         C  0.98298158  0.34898929  0.30939856     0.83200
O72         O  0.97037972  0.34531049  0.40107961    -0.77900
C73         C  0.07086300  0.40073643  0.36963438     0.84000
O74         O  0.94456515  0.37453921  0.37003285    -0.78000
C75         C  0.03087058  0.45039704  0.30971940     0.84100
C76         C  0.03286863  0.45413825  0.42110452     0.84500
O77         O  0.01954717  0.45445482  0.39996975    -0.80500
O78         O  0.16829889  0.70755773  0.08519967    -0.78000
C79         C  0.15382632  0.70352294  0.17782515     0.83100
O80         O  0.17731944  0.63664353  0.11734419    -0.79100
O81         O  0.10065221  0.61766932  0.17537110    -0.80600
O82         O  0.07955493  0.65578006  0.09574137    -0.80400
O83         O  0.13360661  0.68402447  0.05843971    -0.79000
Zn84       Zn  0.16432864  0.68624913  0.12019976     1.55700
O85         O  0.07877643  0.65415684  0.14315872    -0.80400
Cd86       Cd  0.11137559  0.65275445  0.08453840     1.59700
Cd87       Cd  0.13790282  0.62406628  0.11717072     1.59600
O88         O  0.09842936  0.61838994  0.06216396    -0.80400
O89         O  0.13165992  0.65406030  0.11902359    -1.90900
Cd90       Cd  0.11128342  0.65181543  0.15385821     1.59900
O91         O  0.11992176  0.60062397  0.08183212    -0.80300
O92         O  0.13246612  0.68256858  0.18135629    -0.79000
C93         C  0.19685163  0.65939625  0.11932212     0.83500
C94         C  0.15532898  0.70449649  0.06249631     0.83200
O95         O  0.16729496  0.70742484  0.15532786    -0.77900
C96         C  0.06943084  0.65629619  0.11945965     0.84000
O97         O  0.19408114  0.67919334  0.12094937    -0.78000
C98         C  0.10391275  0.60030596  0.06350708     0.84100
C99         C  0.10675548  0.60012529  0.17248865     0.84500
O100        O  0.12119032  0.60050164  0.15220162    -0.80500
O101        O  0.48400826  0.12042311  0.34574379    -0.78000
C102        C  0.47915710  0.11069103  0.43898594     0.83100
O103        O  0.56636181  0.13307417  0.38284269    -0.79100
O104        O  0.50818209  0.05505283  0.43803787    -0.80600
O105        O  0.45315863  0.03100055  0.35672890    -0.80400
O106        O  0.47444594  0.08554442  0.31986843    -0.79000
Zn107      Zn  0.50366213  0.11846794  0.37975907     1.55700
O108        O  0.45070134  0.03194952  0.40413148    -0.80400
Cd109      Cd  0.48616337  0.06517763  0.34587412     1.59700
Cd110      Cd  0.54023656  0.09364329  0.38133282     1.59600
O111        O  0.51076349  0.05665146  0.32275791    -0.80400
O112        O  0.50361053  0.08596743  0.38069819    -1.90900
Cd113      Cd  0.48483348  0.06558656  0.41550154     1.59900
O114        O  0.54834455  0.07859045  0.34568015    -0.80300
O115        O  0.47621824  0.08812832  0.44237923    -0.79000
C116        C  0.56254568  0.15209233  0.37935761     0.83500
C117        C  0.47458167  0.10680165  0.32327922     0.83200
O118        O  0.48880689  0.12343103  0.41611790    -0.77900
C119        C  0.44149462  0.02098279  0.38013596     0.84000
O120        O  0.53987824  0.14887764  0.37694831    -0.78000
C121        C  0.53477778  0.06405524  0.32523743     0.84100
C122        C  0.53173379  0.06080462  0.43523198     0.84500
O123        O  0.54621479  0.07575671  0.41558869    -0.80500
O124        O  0.65007516  0.92706895  0.09236823    -0.78000
C125        C  0.66427001  0.94106055  0.18400119     0.83100
O126        O  0.57352599  0.92325515  0.13028687    -0.79100
O127        O  0.63577275  0.99737731  0.18782030    -0.80600
O128        O  0.68987848  0.01766066  0.10284464    -0.80400
O129        O  0.66269732  0.96236757  0.06611439    -0.79000
Zn130      Zn  0.63465826  0.93240489  0.12807869     1.55700
O131        O  0.69144236  0.01897785  0.15038088    -0.80400
Cd132      Cd  0.65509679  0.98531152  0.09303544     1.59700
Cd133      Cd  0.60185655  0.96196886  0.12968748     1.59600
O134        O  0.63290423  0.99735250  0.07098885    -0.80400
O135        O  0.63724671  0.96613168  0.12852580    -1.90900
Cd136      Cd  0.65740678  0.98616224  0.16282509     1.59900
O137        O  0.59542314  0.97894057  0.09449142    -0.80300
O138        O  0.66739926  0.96362962  0.18760933    -0.79000
C139        C  0.57549425  0.90296127  0.12940717     0.83500
C140        C  0.65991290  0.93992312  0.06962435     0.83200
O141        O  0.65242575  0.92751179  0.16217997    -0.77900
C142        C  0.70140188  0.02833876  0.12608991     0.84000
O143        O  0.59743613  0.90424089  0.12852565    -0.78000
C144        C  0.60979205  0.99279281  0.07410005     0.84100
C145        C  0.61273205  0.99337305  0.18566726     0.84500
O146        O  0.59784866  0.98028469  0.16516561    -0.80500
C147        C  0.71429330  0.33404070  0.37422618     0.80700
N148        N  0.73858936  0.33758742  0.37661143    -0.77600
C149        C  0.75970635  0.36166516  0.37551567     0.83200
N150        N  0.75619916  0.38236427  0.37222130    -0.77500
C151        C  0.73212325  0.37919827  0.36948854     0.83300
N152        N  0.71129858  0.35497887  0.37054551    -0.79200
C153        C  0.42348860  0.72120908  0.12734052     0.80700
N154        N  0.42930370  0.70191854  0.12641287    -0.77600
C155        C  0.41034162  0.67673579  0.12607169     0.83200
N156        N  0.38517980  0.67079718  0.12718131    -0.77500
C157        C  0.37906658  0.68990403  0.12852114     0.83300
N158        N  0.39831708  0.71501243  0.12850171    -0.79200
O159        O  0.39575763  0.45282429  0.09289282    -0.78000
C160        C  0.39619750  0.44094405  0.18602962     0.83100
O161        O  0.46726361  0.52989059  0.12855868    -0.79100
O162        O  0.48209203  0.47093258  0.18851450    -0.80600
O163        O  0.44544137  0.41105412  0.10846059    -0.80400
O164        O  0.41743296  0.43792224  0.06830948    -0.79000
Zn165      Zn  0.41601594  0.46844339  0.12884571     1.55700
O166        O  0.44672117  0.41309528  0.15597073    -0.80400
Cd167      Cd  0.44792491  0.44576063  0.09584607     1.59700
Cd168      Cd  0.47785544  0.50155138  0.12895468     1.59600
O169        O  0.48217295  0.46722472  0.07329907    -0.80400
O170        O  0.44715067  0.46585629  0.12976490    -1.90900
Cd171      Cd  0.44827466  0.44792697  0.16547025     1.59900
O172        O  0.50058746  0.50611353  0.09375593    -0.80300
O173        O  0.41639442  0.43932252  0.19067957    -0.79000
C174        C  0.44492008  0.52774507  0.12868436     0.83500
C175        C  0.39849376  0.44203405  0.07072686     0.83200
O176        O  0.39358788  0.45089982  0.16304838    -0.77900
C177        C  0.44539282  0.40127727  0.13276869     0.84000
O178        O  0.42441565  0.50567672  0.12891420    -0.78000
C179        C  0.50029250  0.49074250  0.07462871     0.84100
C180        C  0.50082173  0.49398328  0.18502435     0.84500
O181        O  0.50119857  0.50764586  0.16397571    -0.80500
O182        O  0.75643240  0.60992191  0.34384906    -0.78000
C183        C  0.75603686  0.62520528  0.43472145     0.83100
O184        O  0.68491712  0.53189706  0.38033487    -0.79100
O185        O  0.67092490  0.59316629  0.43953822    -0.80600
O186        O  0.70166055  0.64627885  0.35346623    -0.80400
O187        O  0.73312492  0.62167707  0.31764928    -0.79000
Zn188      Zn  0.73565372  0.59371589  0.37961140     1.55700
O189        O  0.70167811  0.64774426  0.40087520    -0.80400
Cd190      Cd  0.70173277  0.61230932  0.34403108     1.59700
Cd191      Cd  0.67311581  0.55927024  0.38232995     1.59600
O192        O  0.66818145  0.58823700  0.32152631    -0.80400
O193        O  0.70371724  0.59506521  0.37992347    -1.90900
Cd194      Cd  0.70293495  0.61518006  0.41373982     1.59900
O195        O  0.64810438  0.55273828  0.34851860    -0.80300
O196        O  0.73611299  0.62760598  0.43792175    -0.79000
C197        C  0.70740156  0.53438346  0.37917909     0.83500
C198        C  0.75325872  0.61966516  0.32109269     0.83200
O199        O  0.75806131  0.61266868  0.41376408    -0.77900
C200        C  0.70144593  0.65739218  0.37662394     0.84000
O201        O  0.72778464  0.55659755  0.37931088    -0.78000
C202        C  0.64900878  0.56581025  0.32655412     0.84100
C203        C  0.65302196  0.56952936  0.43901247     0.84500
O204        O  0.65199707  0.55407901  0.41952048    -0.80500
C205        C  0.62718589  0.55462847  0.30619494    -0.11400
C206        C  0.60135125  0.54370439  0.31545693     0.04000
C207        C  0.58122442  0.53371575  0.29545030    -0.12000
C208        C  0.58621510  0.53364456  0.26614281     0.18900
C209        C  0.61210383  0.54440505  0.25693667    -0.09000
C210        C  0.63228012  0.55505711  0.27688997    -0.02000
H211        H  0.56153231  0.52611559  0.30280544     0.05400
C212        C  0.56430127  0.52326140  0.24554912     0.20900
H213        H  0.65204667  0.56323894  0.26953108     0.10600
C214        C  0.56404831  0.53947372  0.22404137    -0.15400
C215        C  0.54402417  0.53058739  0.20396062     0.03600
C216        C  0.52282613  0.50489765  0.20576453    -0.10700
C217        C  0.52300454  0.48888429  0.22779449    -0.00700
C218        C  0.54345962  0.49770497  0.24732774    -0.05900
H219        H  0.57978083  0.55928563  0.22271280     0.06600
H220        H  0.50733514  0.46910432  0.22967097     0.10000
Br221      Br  0.62102914  0.54406786  0.21759280    -0.05600
Br222      Br  0.59252858  0.54326247  0.35497127    -0.02500
Br223      Br  0.54796394  0.55503249  0.17479549     0.00300
Br224      Br  0.54247078  0.47352361  0.27508166    -0.04000
C225        C  0.52212341  0.50066637  0.05404221    -0.11400
C226        C  0.51978516  0.49003310  0.02642130     0.04000
C227        C  0.54117445  0.50039764  0.00809151    -0.12000
C228        C  0.56504323  0.52125068  0.01660655     0.18900
C229        C  0.56745518  0.53186697  0.04401944    -0.09000
C230        C  0.54617157  0.52160546  0.06238963    -0.02000
H231        H  0.54361049  0.49909570  0.48789572     0.05400
C232        C  0.59115139  0.53788286  0.50099202     0.20900
H233        H  0.54858308  0.52998207  0.08351481     0.10600
C234        C  0.60187072  0.56369516  0.49213419    -0.15400
C235        C  0.62249442  0.57467869  0.47273776     0.03600
C236        C  0.63259210  0.55955827  0.46135271    -0.10700
C237        C  0.62203839  0.53381731  0.47060277    -0.00700
C238        C  0.60173624  0.52304939  0.49038199    -0.05900
H239        H  0.59371980  0.57523452  0.49989053     0.06600
H240        H  0.62968817  0.52196515  0.46244744     0.10000
Br241      Br  0.59961163  0.55996406  0.05759483    -0.05600
Br242      Br  0.48782633  0.46255177  0.01148254    -0.02500
Br243      Br  0.63448916  0.60976572  0.46119957     0.00300
Br244      Br  0.58910511  0.48486287  0.00227562    -0.04000
C245        C  0.41705853  0.65594692  0.12596798    -0.11400
C246        C  0.43764870  0.65753474  0.10943568     0.04000
C247        C  0.44334855  0.63742363  0.11038283    -0.12000
C248        C  0.42891148  0.61565725  0.12759669     0.18900
C249        C  0.40871283  0.61423303  0.14441601    -0.09000
C250        C  0.40280528  0.63414529  0.14332905    -0.02000
H251        H  0.45876687  0.63849828  0.09716368     0.05400
C252        C  0.43411305  0.59389573  0.12663992     0.20900
H253        H  0.38719199  0.63273332  0.15645898     0.10600
C254        C  0.45434777  0.59489289  0.14288729    -0.15400
C255        C  0.45859465  0.57378534  0.14359255     0.03600
C256        C  0.44229273  0.55116575  0.12784771    -0.10700
C257        C  0.42235601  0.55053836  0.11123852    -0.00700
C258        C  0.41835069  0.57169400  0.11034528    -0.05900
H259        H  0.46650951  0.61194242  0.15556769     0.06600
H260        H  0.40983604  0.53348296  0.09873501     0.10000
Br261      Br  0.38887460  0.58549424  0.16935811    -0.05600
Br262      Br  0.45752211  0.68562584  0.08365594    -0.02500
Br263      Br  0.48559483  0.57629408  0.16805552     0.00300
Br264      Br  0.39115973  0.56954287  0.08650767    -0.04000
C265        C  0.72870726  0.40215257  0.36782405    -0.11400
C266        C  0.70849729  0.40222545  0.35206821     0.04000
C267        C  0.70531137  0.42396543  0.35283801    -0.12000
C268        C  0.72205945  0.44586729  0.36887463     0.18900
C269        C  0.74241481  0.44599381  0.38420132    -0.09000
C270        C  0.74570308  0.42438795  0.38340311    -0.02000
H271        H  0.68971293  0.42383189  0.34079926     0.05400
C272        C  0.71762015  0.46813172  0.37018459     0.20900
H273        H  0.76121527  0.42471595  0.39581138     0.10600
C274        C  0.69707108  0.46616089  0.38660309    -0.15400
C275        C  0.69319880  0.48734323  0.38982689     0.03600
C276        C  0.71022090  0.51113277  0.37646600    -0.10700
C277        C  0.73052961  0.51281419  0.35963903    -0.00700
C278        C  0.73414643  0.49154402  0.35620224    -0.05900
H279        H  0.68430383  0.44817981  0.39747750     0.06600
H280        H  0.74351340  0.53071381  0.34875181     0.10000
Br281      Br  0.76541600  0.47474581  0.40770241    -0.05600
Br282      Br  0.68546337  0.37398080  0.32795792    -0.02500
Br283      Br  0.66543351  0.48291087  0.41423595     0.00300
Br284      Br  0.76156408  0.49515686  0.33176330    -0.04000
C285        C  0.44468804  0.74857086  0.12801481    -0.11400
C286        C  0.44219486  0.76920267  0.11654347     0.04000
C287        C  0.46341602  0.79437654  0.11683305    -0.12000
C288        C  0.48716482  0.79960159  0.12852586     0.18900
C289        C  0.48939004  0.77934110  0.14101925    -0.09000
C290        C  0.46842959  0.75413415  0.14032755    -0.02000
H291        H  0.46151125  0.80996506  0.10746230     0.05400
C292        C  0.50932607  0.82630830  0.12763338     0.20900
H293        H  0.47066664  0.73881552  0.14988961     0.10600
C294        C  0.50817597  0.84581049  0.14318124    -0.15400
C295        C  0.52918192  0.87111361  0.14365885     0.03600
C296        C  0.55201097  0.87708961  0.12859118    -0.10700
C297        C  0.55272858  0.85762308  0.11238893    -0.00700
C298        C  0.53154614  0.83257207  0.11141872    -0.05900
H299        H  0.49097208  0.84119749  0.15539843     0.06600
H300        H  0.56980298  0.86199842  0.10004174     0.10000
Br301      Br  0.52027624  0.78523652  0.16034258    -0.05600
Br302      Br  0.41115523  0.76463256  0.09877724    -0.02500
Br303      Br  0.52586281  0.89601995  0.16652706     0.00300
Br304      Br  0.53355054  0.80791903  0.08672594    -0.04000
C305        C  0.58488598  0.17860697  0.37829937    -0.11400
C306        C  0.58753482  0.19589494  0.35625429     0.04000
C307        C  0.60868055  0.22108389  0.35619692    -0.12000
C308        C  0.62728144  0.22948174  0.37794843     0.18900
C309        C  0.62454203  0.21236882  0.40014248    -0.09000
C310        C  0.60361022  0.18702693  0.40000527    -0.02000
H311        H  0.61075096  0.23414294  0.33898639     0.05400
C312        C  0.64949423  0.25612021  0.37696539     0.20900
H313        H  0.60162819  0.17402840  0.41724434     0.10600
C314        C  0.64624447  0.27670888  0.38594274    -0.15400
C315        C  0.66690310  0.30221274  0.38537211     0.03600
C316        C  0.69145849  0.30747327  0.37528104    -0.10700
C317        C  0.69437467  0.28661352  0.36606074    -0.00700
C318        C  0.67374275  0.26119233  0.36688349    -0.05900
H319        H  0.62758376  0.27284451  0.39380780     0.06600
H320        H  0.71269685  0.29003050  0.35777947     0.10000
Br321      Br  0.64852494  0.22313043  0.43139603    -0.05600
Br322      Br  0.56361459  0.18567153  0.32493226    -0.02500
Br323      Br  0.66018956  0.32829416  0.40030701     0.00300
Br324      Br  0.67941914  0.23399122  0.35361296    -0.04000
C325        C  0.54275106  0.04992551  0.45538991    -0.11400
C326        C  0.55875022  0.04020488  0.44593744     0.04000
C327        C  0.56952083  0.03078602  0.46579193    -0.12000
C328        C  0.56456414  0.03083239  0.49499526     0.18900
C329        C  0.54849488  0.04178072  0.00309789    -0.09000
C330        C  0.53760992  0.04965490  0.48467430    -0.02000
H331        H  0.58164702  0.02318837  0.45843217     0.05400
C332        C  0.57706526  0.02318519  0.01447395     0.20900
H333        H  0.52547614  0.05718029  0.49221591     0.10600
C334        C  0.60234741  0.03900883  0.02445111    -0.15400
C335        C  0.61345863  0.02948298  0.04380444     0.03600
C336        C  0.59909882  0.00364829  0.05340603    -0.10700
C337        C  0.57375929  0.98789001  0.04335128    -0.00700
C338        C  0.56280128  0.99738998  0.02382122    -0.05900
H339        H  0.61335800  0.05893123  0.01736937     0.06600
H340        H  0.56256141  0.96797572  0.05041016     0.10000
Br341      Br  0.53895840  0.04028668  0.04247282    -0.05600
Br342      Br  0.56533742  0.03784705  0.40618598    -0.02500
Br343      Br  0.64755625  0.05309720  0.05776511     0.00300
Br344      Br  0.52732581  0.97209311  0.51338423    -0.04000
C345        C  0.54706195  0.05482973  0.30435013    -0.11400
C346        C  0.57341503  0.06988134  0.29654422     0.04000
C347        C  0.58439103  0.05975365  0.27778092    -0.12000
C348        C  0.56956411  0.03488787  0.26632171     0.18900
C349        C  0.54332324  0.01991800  0.27385792    -0.09000
C350        C  0.53227514  0.02994421  0.29260735    -0.02000
H351        H  0.60451542  0.07151181  0.27168488     0.05400
C352        C  0.58149274  0.02520151  0.24569605     0.20900
H353        H  0.51210741  0.01799964  0.29843501     0.10600
C354        C  0.59704512  0.01532769  0.25559386    -0.15400
C355        C  0.60778307  0.00515462  0.23649076     0.03600
C356        C  0.60284942  0.00471452  0.20690438    -0.10700
C357        C  0.58754654  0.01498905  0.19715726    -0.00700
C358        C  0.57713209  0.02538863  0.21620677    -0.05900
H359        H  0.60046197  0.01513301  0.27833229     0.06600
H360        H  0.58382650  0.01513531  0.17448769     0.10000
Br361      Br  0.52201047  0.98553039  0.25934778    -0.05600
Br362      Br  0.59509031  0.10493703  0.30911621    -0.02500
Br363      Br  0.62742142  0.99058422  0.25221775     0.00300
Br364      Br  0.55733952  0.03999751  0.20105706    -0.04000
C365        C  0.22331417  0.66281501  0.12032315    -0.11400
C366        C  0.24552183  0.68602200  0.11162485     0.04000
C367        C  0.26999411  0.68835630  0.11355476    -0.12000
C368        C  0.27314502  0.66814324  0.12418324     0.18900
C369        C  0.25121941  0.64518701  0.13332049    -0.09000
C370        C  0.22660380  0.64255891  0.13097237    -0.02000
H371        H  0.28680150  0.70616218  0.10665572     0.05400
C372        C  0.29967478  0.67210738  0.12640770     0.20900
H373        H  0.21000498  0.62479521  0.13829800     0.10600
C374        C  0.31732274  0.69124079  0.14497631    -0.15400
C375        C  0.34310442  0.69708132  0.14633617     0.03600
C376        C  0.35166981  0.68347627  0.12895990    -0.10700
C377        C  0.33384405  0.66397077  0.11075338    -0.00700
C378        C  0.30815616  0.65850350  0.10903328    -0.05900
H379        H  0.31100962  0.70188982  0.15834739     0.06600
H380        H  0.34017323  0.65360842  0.09694446     0.10000
Br381      Br  0.25405291  0.61758539  0.15076412    -0.05600
Br382      Br  0.24421734  0.71515158  0.09598247    -0.02500
Br383      Br  0.36530392  0.72319290  0.17309925     0.00300
Br384      Br  0.28600509  0.63378299  0.08110214    -0.04000
C385        C  0.91627120  0.39135306  0.37353855    -0.11400
C386        C  0.90727265  0.40434308  0.35590233     0.04000
C387        C  0.88207582  0.39985228  0.35925011    -0.12000
C388        C  0.86562147  0.38277485  0.38023196     0.18900
C389        C  0.87475414  0.37009107  0.39815850    -0.09000
C390        C  0.89982145  0.37429989  0.39455906    -0.02000
H391        H  0.87505028  0.40929183  0.34495965     0.05400
C392        C  0.83849124  0.37706658  0.38150068     0.20900
H393        H  0.90659065  0.36434828  0.40841848     0.10600
C394        C  0.81863530  0.35213651  0.37465700    -0.15400
C395        C  0.79285059  0.34625686  0.37321167     0.03600
C396        C  0.78645475  0.36585359  0.37837735    -0.10700
C397        C  0.80656458  0.39074365  0.38588700    -0.00700
C398        C  0.83226831  0.39640253  0.38751807    -0.05900
H399        H  0.82335697  0.33719772  0.36972379     0.06600
H400        H  0.80238054  0.40608937  0.39052671     0.10000
Br401      Br  0.85398931  0.34736619  0.42824803    -0.05600
Br402      Br  0.92771202  0.42672423  0.32548179    -0.02500
Br403      Br  0.76836577  0.31135332  0.36255577     0.00300
Br404      Br  0.85815820  0.43070051  0.39856171    -0.04000
C405        C  0.04401128  0.47618056  0.44150410    -0.11400
C406        C  0.05223854  0.50188724  0.43285299     0.04000
C407        C  0.06246044  0.52194195  0.45299376    -0.12000
C408        C  0.06492419  0.51705712  0.48176187     0.18900
C409        C  0.05684501  0.49155925  0.49047110    -0.09000
C410        C  0.04666141  0.47144864  0.47041084    -0.02000
H411        H  0.06882254  0.54156832  0.44611723     0.05400
C412        C  0.06800470  0.53592262  0.00512845     0.20900
H413        H  0.04040662  0.45192457  0.47757221     0.10600
C414        C  0.05337621  0.54590781  0.01731311    -0.15400
C415        C  0.06465863  0.56676285  0.03642196     0.03600
C416        C  0.09119150  0.57816895  0.04343451    -0.10700
C417        C  0.10566532  0.56781250  0.03145870    -0.00700
C418        C  0.09432722  0.54698839  0.01233151    -0.05900
H419        H  0.03303346  0.53729118  0.01209107     0.06600
H420        H  0.12598511  0.57619583  0.03666672     0.10000
Br421      Br  0.04741479  0.47958373  0.03204693    -0.05600
Br422      Br  0.05168029  0.51137287  0.39373721    -0.02500
Br423      Br  0.04238992  0.57754860  0.05370214     0.00300
Br424      Br  0.12408554  0.53795513  0.49913008    -0.04000
C425        C  0.09629987  0.57817940  0.19270631    -0.11400
C426        C  0.09174276  0.58094667  0.22176725     0.04000
C427        C  0.08114696  0.55934411  0.23972154    -0.12000
C428        C  0.07518343  0.53494619  0.22937155     0.18900
C429        C  0.07980988  0.53212045  0.20050729    -0.09000
C430        C  0.09042174  0.55366310  0.18250475    -0.02000
H431        H  0.07775597  0.56161345  0.26202946     0.05400
C432        C  0.06374202  0.51266775  0.24901896     0.20900
H433        H  0.09360243  0.55110248  0.16021903     0.10600
C434        C  0.03822449  0.50296328  0.25821401    -0.15400
C435        C  0.02690619  0.48241925  0.27757179     0.03600
C436        C  0.04127149  0.47115192  0.28799228    -0.10700
C437        C  0.06676285  0.48077301  0.27838812    -0.00700
C438        C  0.07813532  0.50156106  0.25935525    -0.05900
H439        H  0.02706952  0.51147896  0.25028190     0.06600
H440        H  0.07823320  0.47266574  0.28647794     0.10000
Br441      Br  0.07109202  0.49910742  0.18454071    -0.05600
Br442      Br  0.10094233  0.61376012  0.23874529    -0.02500
Br443      Br  0.99155111  0.47016565  0.28790487     0.00300
Br444      Br  0.11377760  0.51510079  0.24935388    -0.04000
C445        C  0.21496716  0.40095884  0.37734762    -0.11400
C446        C  0.19298927  0.38113166  0.36353879     0.04000
C447        C  0.17008797  0.38215627  0.36249286    -0.12000
C448        C  0.16871296  0.40280798  0.37491986     0.18900
C449        C  0.19053251  0.42250165  0.38898237    -0.09000
C450        C  0.21343673  0.42142765  0.39019767    -0.02000
H451        H  0.15324901  0.36676775  0.35196601     0.05400
C452        C  0.14405100  0.40295071  0.37363664     0.20900
H453        H  0.23023203  0.43681339  0.40078203     0.10600
C454        C  0.12503478  0.38903109  0.39412794    -0.15400
C455        C  0.10105623  0.38789257  0.39313875     0.03600
C456        C  0.09575505  0.40088709  0.37116881    -0.10700
C457        C  0.11484871  0.41461521  0.35046722    -0.00700
C458        C  0.13887442  0.41580499  0.35165048    -0.05900
H459        H  0.12880629  0.37875670  0.41084833     0.06600
H460        H  0.11121440  0.42476353  0.33349354     0.10000
Br461      Br  0.18982643  0.45116241  0.40661497    -0.05600
Br462      Br  0.19302327  0.35181499  0.34671555    -0.02500
Br463      Br  0.07595227  0.36685924  0.42136795     0.00300
Br464      Br  0.16407517  0.43508843  0.32285421    -0.04000
C465        C  0.37971371  0.43543045  0.04693105    -0.11400
C466        C  0.37440363  0.41569886  0.02676558     0.04000
C467        C  0.36362408  0.41793454  0.49377486    -0.12000
C468        C  0.33799790  0.41013816  0.50114286     0.18900
C469        C  0.35030067  0.44570421  0.02120803    -0.09000
C470        C  0.36713775  0.44996773  0.04395144    -0.02000
H471        H  0.36894589  0.41918612  0.47142892     0.05400
C472        C  0.31923004  0.40580553  0.47810713     0.20900
H473        H  0.37082285  0.46520807  0.05907003     0.10600
C474        C  0.31225859  0.38540690  0.45877914    -0.15400
C475        C  0.29677625  0.38249849  0.43500665     0.03600
C476        C  0.28791370  0.40017405  0.43033866    -0.10700
C477        C  0.29424005  0.42007527  0.45018552    -0.00700
C478        C  0.31003615  0.42320828  0.47369225    -0.05900
H479        H  0.31936790  0.37205386  0.46187486     0.06600
H480        H  0.28807620  0.43411037  0.44651198     0.10000
Br481      Br  0.33430977  0.46669216  0.01855365    -0.05600
Br482      Br  0.38874996  0.39324113  0.02941125    -0.02500
Br483      Br  0.28845349  0.35417115  0.40950766     0.00300
Br484      Br  0.32059481  0.45306588  0.49746253    -0.04000
C485        C  0.37549017  0.43196223  0.20800828    -0.11400
C486        C  0.37297525  0.41497772  0.23055696     0.04000
C487        C  0.35421488  0.40885124  0.25167119    -0.12000
C488        C  0.33777355  0.41925114  0.25089497     0.18900
C489        C  0.33950111  0.43534088  0.22815021    -0.09000
C490        C  0.35808099  0.44143541  0.20689394    -0.02000
H491        H  0.35290647  0.39646164  0.26929071     0.05400
C492        C  0.32119439  0.41567944  0.27571366     0.20900
H493        H  0.35940643  0.45439225  0.18992631     0.10600
C494        C  0.33099735  0.43443842  0.29726617    -0.15400
C495        C  0.31650589  0.43171070  0.32169654     0.03600
C496        C  0.29178484  0.40974174  0.32492317    -0.10700
C497        C  0.28165042  0.39126078  0.30295071    -0.00700
C498        C  0.29624794  0.39407941  0.27841041    -0.05900
H499        H  0.35008203  0.45126327  0.29506383     0.06600
H500        H  0.26263960  0.37435348  0.30520952     0.10000
Br501      Br  0.31749470  0.45019736  0.22603385    -0.05600
Br502      Br  0.39409623  0.39923213  0.23432381    -0.02500
Br503      Br  0.33108671  0.45895723  0.34956788     0.00300
Br504      Br  0.28166168  0.36808525  0.24926293    -0.04000
C505        C  0.04626492  0.65953112  0.11976423    -0.11400
C506        C  0.03915051  0.66969189  0.09623704     0.04000
C507        C  0.01709671  0.67221319  0.09794719    -0.12000
C508        C  0.00203330  0.66521864  0.12274384     0.18900
C509        C  0.00909643  0.65543180  0.14623696    -0.09000
C510        C  0.03099324  0.65268665  0.14463957    -0.02000
H511        H  0.01169361  0.67983613  0.07981878     0.05400
C512        C  0.97836469  0.66720385  0.12321337     0.20900
H513        H  0.03591018  0.64488490  0.16297634     0.10600
C514        C  0.95610616  0.64789860  0.10974345    -0.15400
C515        C  0.93315361  0.64878885  0.10995108     0.03600
C516        C  0.93231968  0.66942230  0.12367969    -0.10700
C517        C  0.95463883  0.68875134  0.13721390    -0.00700
C518        C  0.97764266  0.68784449  0.13690780    -0.05900
H519        H  0.95653147  0.63189141  0.09933413     0.06600
H520        H  0.95421116  0.70469342  0.14778839     0.10000
Br521      Br  0.98902860  0.64503195  0.18068148    -0.05600
Br522      Br  0.05885484  0.68173268  0.06152545    -0.02500
Br523      Br  0.90319054  0.62058966  0.09251826     0.00300
Br524      Br  0.00770869  0.71528983  0.15494657    -0.04000
C525        C  0.77291766  0.62841439  0.29773761    -0.11400
C526        C  0.79669941  0.62845797  0.30019863     0.04000
C527        C  0.81369784  0.63598332  0.27692482    -0.12000
C528        C  0.80766588  0.64345733  0.25102886     0.18900
C529        C  0.78437624  0.64377034  0.24850000    -0.09000
C530        C  0.76737167  0.63644365  0.27164403    -0.02000
H531        H  0.83161585  0.63561756  0.27887224     0.05400
C532        C  0.82511143  0.64946037  0.22628322     0.20900
H533        H  0.74948104  0.63671495  0.26891111     0.10600
C534        C  0.81813025  0.63093000  0.20462835    -0.15400
C535        C  0.83335608  0.63621835  0.18018090     0.03600
C536        C  0.85600745  0.66044619  0.17709133    -0.10700
C537        C  0.86346454  0.67873191  0.19915050    -0.00700
C538        C  0.84813367  0.67339831  0.22366337    -0.05900
H539        H  0.80061470  0.61235839  0.20667229     0.06600
H540        H  0.88087050  0.69736889  0.19698056     0.10000
Br541      Br  0.77499943  0.65403521  0.21368794    -0.05600
Br542      Br  0.80773509  0.61844770  0.33407246    -0.02500
Br543      Br  0.82267212  0.60952825  0.15182493     0.00300
Br544      Br  0.85867254  0.69961364  0.25246466    -0.04000
C545        C  0.85842094  0.66703023  0.07183165    -0.11400
C546        C  0.85301588  0.68588584  0.06115329     0.04000
C547        C  0.83689024  0.68028737  0.03727941    -0.12000
C548        C  0.82591881  0.65593495  0.02407000     0.18900
C549        C  0.83183458  0.63734178  0.03442982    -0.09000
C550        C  0.84808432  0.64302654  0.05805650    -0.02000
H551        H  0.83247902  0.69469315  0.02936014     0.05400
C552        C  0.80733337  0.64952126  0.00040030     0.20900
H553        H  0.85189987  0.62832808  0.06638595     0.10600
C554        C  0.82172185  0.65497554  0.47167634    -0.15400
C555        C  0.80317982  0.64589606  0.44984127     0.03600
C556        C  0.77687381  0.63672600  0.45647342    -0.10700
C557        C  0.77011392  0.63817080  0.48490780    -0.00700
C558        C  0.78157939  0.64288882  0.00573771    -0.05900
H559        H  0.84172518  0.66135852  0.46655857     0.06600
H560        H  0.75012542  0.63139313  0.49049835     0.10000
Br561      Br  0.81680151  0.60333905  0.01815080    -0.05600
Br562      Br  0.86718948  0.71931991  0.07860686    -0.02500
Br563      Br  0.81531849  0.64754434  0.41150760     0.00300
Br564      Br  0.76979215  0.64421810  0.04350131    -0.04000
C565        C  0.70119725  0.68229511  0.37578675    -0.11400
C566        C  0.69715209  0.69281338  0.35035986     0.04000
C567        C  0.69732668  0.71637923  0.35128304    -0.12000
C568        C  0.70145841  0.72991112  0.37696034     0.18900
C569        C  0.70516193  0.71952462  0.40225665    -0.09000
C570        C  0.70509210  0.69606705  0.40152744    -0.02000
H571        H  0.69418572  0.72424240  0.33178368     0.05400
C572        C  0.70130649  0.75459703  0.37707013     0.20900
H573        H  0.70812853  0.68862976  0.42138849     0.10600
C574        C  0.67758254  0.75410800  0.37585025    -0.15400
C575        C  0.67673678  0.77712400  0.37652642     0.03600
C576        C  0.69986889  0.80101960  0.37836040    -0.10700
C577        C  0.72360212  0.80155026  0.37931359    -0.00700
C578        C  0.72445994  0.77853486  0.37857801    -0.05900
H579        H  0.65971814  0.73578594  0.37464740     0.06600
H580        H  0.74145111  0.81988560  0.38054762     0.10000
Br581      Br  0.70979854  0.73647795  0.43841319    -0.05600
Br582      Br  0.69056136  0.67631456  0.31360512    -0.02500
Br583      Br  0.64364203  0.77511397  0.37536450     0.00300
Br584      Br  0.75759706  0.78064330  0.37923553    -0.04000
C585        C  0.69665962  0.87098980  0.43419632    -0.11400
C586        C  0.67709298  0.85685433  0.45449871     0.04000
C587        C  0.67411019  0.86962125  0.47799310    -0.12000
C588        C  0.69015228  0.89635330  0.48151327     0.18900
C589        C  0.71044702  0.91023857  0.46214494    -0.09000
C590        C  0.71354802  0.89754383  0.43870850    -0.02000
H591        H  0.65846390  0.85886866  0.49290556     0.05400
C592        C  0.68427817  0.90957616  0.50443920     0.20900
H593        H  0.72875961  0.90860665  0.42343946     0.10600
C594        C  0.67966819  0.89755947  0.02810441    -0.15400
C595        C  0.67458590  0.90922805  0.05121479     0.03600
C596        C  0.66733382  0.92817520  0.04622687    -0.10700
C597        C  0.66610141  0.93538453  0.01791043    -0.00700
C598        C  0.67208270  0.92404601  0.49831748    -0.05900
H599        H  0.68504960  0.88295725  0.03204388     0.06600
H600        H  0.66047790  0.94973607  0.01352383     0.10000
Br601      Br  0.73385871  0.94664562  0.46648330    -0.05600
Br602      Br  0.65220863  0.82080426  0.44996726    -0.02500
Br603      Br  0.67904107  0.89905555  0.08879112     0.00300
Br604      Br  0.66227827  0.92729014  0.46013493    -0.04000
C605        C  0.67351791  0.92965172  0.20610635    -0.11400
C606        C  0.69298464  0.94485565  0.22625337     0.04000
C607        C  0.69874776  0.93287258  0.24850459    -0.12000
C608        C  0.68568955  0.90591360  0.25102579     0.18900
C609        C  0.66750970  0.89067485  0.23015466    -0.09000
C610        C  0.66160887  0.90252025  0.20793037    -0.02000
H611        H  0.71296869  0.94466646  0.26443856     0.05400
C612        C  0.68895352  0.89411905  0.27722714     0.20900
H613        H  0.64690393  0.89034500  0.19262982     0.10600
C614        C  0.66989939  0.88615339  0.29837035    -0.15400
C615        C  0.67188150  0.87482372  0.32361923     0.03600
C616        C  0.69331314  0.87129015  0.32802534    -0.10700
C617        C  0.71238642  0.87921424  0.30675339    -0.00700
C618        C  0.71041732  0.89074792  0.28151951    -0.05900
H619        H  0.65331237  0.88866729  0.29510291     0.06600
H620        H  0.72895640  0.87666944  0.30993491     0.10000
Br621      Br  0.64978581  0.85359608  0.23176487    -0.05600
Br622      Br  0.71282448  0.98189645  0.22480142    -0.02500
Br623      Br  0.64409453  0.86347885  0.35062449     0.00300
Br624      Br  0.73715803  0.90132509  0.25340525    -0.04000
C625        C  0.72686689  0.05246690  0.12430799    -0.11400
C626        C  0.74593474  0.06022634  0.14592121     0.04000
C627        C  0.76964938  0.08306558  0.14271679    -0.12000
C628        C  0.77488461  0.09846675  0.11833663     0.18900
C629        C  0.75616850  0.09083758  0.09671667    -0.09000
C630        C  0.73245530  0.06803742  0.09977348    -0.02000
H631        H  0.78415340  0.08888308  0.15935744     0.05400
C632        C  0.79981934  0.12273973  0.11620133     0.20900
H633        H  0.71822085  0.06260765  0.08289941     0.10600
C634        C  0.82135559  0.12231178  0.10489847    -0.15400
C635        C  0.84548826  0.14496167  0.10368805     0.03600
C636        C  0.84823032  0.16837922  0.11410719    -0.10700
C637        C  0.82655036  0.16872351  0.12518842    -0.00700
C638        C  0.80245389  0.14615066  0.12620285    -0.05900
H639        H  0.81942344  0.10428564  0.09732900     0.06600
H640        H  0.82841553  0.18661933  0.13312915     0.10000
Br641      Br  0.76221186  0.11109412  0.06278670    -0.05600
Br642      Br  0.74177548  0.04025251  0.17963277    -0.02500
Br643      Br  0.87430094  0.14262913  0.08914614     0.00300
Br644      Br  0.77367758  0.14801756  0.14169375    -0.04000
C645        C  0.91638549  0.24431844  0.16779964    -0.11400
C646        C  0.92269348  0.23499583  0.19245202     0.04000
C647        C  0.93295165  0.25107213  0.21643048    -0.12000
C648        C  0.93690956  0.27632168  0.21622179     0.18900
C649        C  0.93034652  0.28548477  0.19176894    -0.09000
C650        C  0.92012519  0.26951731  0.16792663    -0.02000
H651        H  0.93812156  0.24398597  0.23517974     0.05400
C652        C  0.94845118  0.29325276  0.24131077     0.20900
H653        H  0.91526307  0.27692218  0.14920314     0.10600
C654        C  0.97536222  0.30667719  0.24464198    -0.15400
C655        C  0.98714269  0.32452521  0.26687703     0.03600
C656        C  0.97176527  0.32925610  0.28629807    -0.10700
C657        C  0.94466897  0.31501188  0.28324177    -0.00700
C658        C  0.93303329  0.29721663  0.26101330    -0.05900
H659        H  0.98729220  0.30348759  0.22959098     0.06600
H660        H  0.93238428  0.31811441  0.29783303     0.10000
Br661      Br  0.93567043  0.31993950  0.18968816    -0.05600
Br662      Br  0.91920386  0.20125178  0.19388573    -0.02500
Br663      Br  0.02410771  0.34082112  0.26980677     0.00300
Br664      Br  0.89602599  0.27900471  0.25797236    -0.04000
C665        C  0.97184836  0.32930626  0.44705237    -0.11400
C666        C  0.95700908  0.30252943  0.44107734     0.04000
C667        C  0.94569557  0.28485117  0.46349022    -0.12000
C668        C  0.95544289  0.29261758  0.99022073     0.18900
C669        C  0.98111680  0.31308645  0.99104438    -0.09000
C670        C  0.97521293  0.33763697  0.47560157    -0.02000
H671        H  0.93450711  0.26434831  0.45882666     0.05400
C672        C  0.94340048  0.27588525  0.01520728     0.20900
H673        H  0.98625774  0.35807975  0.48060987     0.10600
C674        C  0.93972986  0.25075398  0.01579316    -0.15400
C675        C  0.92804716  0.23460440  0.03940778     0.03600
C676        C  0.91981911  0.24368997  0.06270613    -0.10700
C677        C  0.92302331  0.26866177  0.06155030    -0.00700
C678        C  0.93466522  0.28469003  0.03812221    -0.05900
H679        H  0.94622178  0.24384457  0.99802221     0.06600
H680        H  0.91646727  0.27577938  0.07907833     0.10000
Br681      Br  0.00335719  0.31786655  0.02287264    -0.05600
Br682      Br  0.95253244  0.28869057  0.40312048    -0.02500
Br683      Br  0.92509294  0.20108578  0.03935907     0.00300
Br684      Br  0.93794026  0.31838986  0.03819969    -0.04000
C685        C  0.41607925  0.99650260  0.37877082    -0.11400
C686        C  0.40552028  0.97902901  0.40197450     0.04000
C687        C  0.38078177  0.95713903  0.39961868    -0.12000
C688        C  0.36637178  0.95194423  0.37435255     0.18900
C689        C  0.37711586  0.96874199  0.35097497    -0.09000
C690        C  0.40162995  0.99070371  0.35329698    -0.02000
H691        H  0.37276221  0.94400547  0.41756364     0.05400
C692        C  0.33995703  0.92922887  0.37279213     0.20900
H693        H  0.40918691  0.00359012  0.33510321     0.10600
C694        C  0.31902081  0.93142478  0.38293913    -0.15400
C695        C  0.29369849  0.91050874  0.38122228     0.03600
C696        C  0.28901956  0.88688831  0.36914700    -0.10700
C697        C  0.31000495  0.88483799  0.35874773    -0.00700
C698        C  0.33531539  0.90572021  0.36060021    -0.05900
H699        H  0.32239578  0.94955035  0.39203973     0.06600
H700        H  0.30673132  0.86673313  0.34968747     0.10000
Br701      Br  0.35872853  0.96263816  0.31557314    -0.05600
Br702      Br  0.42412771  0.98292219  0.43683110    -0.02500
Br703      Br  0.26609094  0.91545081  0.39461329     0.00300
Br704      Br  0.36304267  0.90123261  0.34669032    -0.04000
C705        C  0.16560812  0.72482799  0.03996004    -0.11400
C706        C  0.18856631  0.74911941  0.04331132     0.04000
C707        C  0.19786191  0.76658418  0.02049570    -0.12000
C708        C  0.18104709  0.76171798  0.49193033     0.18900
C709        C  0.16749149  0.73502622  0.48602413    -0.09000
C710        C  0.15212052  0.71953932  0.01384634    -0.02000
H711        H  0.21584711  0.78470610  0.02288273     0.05400
C712        C  0.19307795  0.78091320  0.46875377     0.20900
H713        H  0.13435391  0.70139275  0.01061840     0.10600
C714        C  0.21921497  0.79031347  0.46251591    -0.15400
C715        C  0.23093153  0.80660658  0.43913897     0.03600
C716        C  0.21643223  0.81403377  0.42165655    -0.10700
C717        C  0.19040519  0.80521690  0.42850642    -0.00700
C718        C  0.17872128  0.78883363  0.45192649    -0.05900
H719        H  0.23029604  0.78412477  0.47528940     0.06600
H720        H  0.17901393  0.81065516  0.41522177     0.10000
Br721      Br  0.16216910  0.72216978  0.44759212    -0.05600
Br722      Br  0.20876698  0.76024756  0.07778795    -0.02500
Br723      Br  0.26598187  0.81582876  0.43061279     0.00300
Br724      Br  0.14305859  0.77722555  0.45985295    -0.04000
C725        C  0.21688279  0.81315085  0.31581942    -0.11400
C726        C  0.19156602  0.80553166  0.30650397     0.04000
C727        C  0.18088445  0.78859412  0.28326794    -0.12000
C728        C  0.19507235  0.77897077  0.26916255     0.18900
C729        C  0.22056244  0.78712568  0.27796192    -0.09000
C730        C  0.23130387  0.80417197  0.30100559    -0.02000
H731        H  0.16133110  0.78258308  0.27646051     0.05400
C732        C  0.18292973  0.75986252  0.24584569     0.20900
H733        H  0.25063054  0.80958833  0.30815421     0.10600
C734        C  0.18860334  0.76804766  0.21740047    -0.15400
C735        C  0.17888059  0.75020556  0.19488208     0.03600
C736        C  0.16336774  0.72345175  0.20072965    -0.10700
C737        C  0.15704928  0.71549509  0.22931739    -0.00700
C738        C  0.16668051  0.73341967  0.25173794    -0.05900
H739        H  0.20079038  0.78844660  0.21272135     0.06600
H740        H  0.14505552  0.69514924  0.23435582     0.10000
Br741      Br  0.24083174  0.77423543  0.26015507    -0.05600
Br742      Br  0.17100114  0.81792777  0.32465727    -0.02500
Br743      Br  0.18643487  0.76392868  0.15677984     0.00300
Br744      Br  0.15793782  0.72088881  0.29017566    -0.04000
C745        C  0.44298142  0.25518864  0.13411907    -0.11400
C746        C  0.42605867  0.25931153  0.11663769     0.04000
C747        C  0.42701688  0.28325829  0.11701877    -0.12000
C748        C  0.44447113  0.30337858  0.13477358     0.18900
C749        C  0.46095517  0.29915097  0.15273211    -0.09000
C750        C  0.46015823  0.27526251  0.15225649    -0.02000
H751        H  0.41392095  0.28615796  0.10355620     0.05400
C752        C  0.44496468  0.32850081  0.13432340     0.20900
H753        H  0.47322661  0.27245577  0.16585758     0.10600
C754        C  0.43499551  0.33554064  0.15755721    -0.15400
C755        C  0.43457737  0.35883933  0.15751497     0.03600
C756        C  0.44448839  0.37583500  0.13382003    -0.10700
C757        C  0.45418285  0.36843507  0.11045515    -0.00700
C758        C  0.45448499  0.34510792  0.11057156    -0.05900
H759        H  0.42716697  0.32262510  0.17570388     0.06600
H760        H  0.46197342  0.38104295  0.09206859     0.10000
Br761      Br  0.48536029  0.32567061  0.17763256    -0.05600
Br762      Br  0.40010702  0.23252674  0.09317138    -0.02500
Br763      Br  0.41867802  0.36511343  0.18977894     0.00300
Br764      Br  0.46880338  0.33705859  0.07812107    -0.04000
C765        C  0.44047857  0.18079019  0.18709963    -0.11400
C766        C  0.42162240  0.15493225  0.19301465     0.04000
C767        C  0.42436083  0.14241827  0.21694022    -0.12000
C768        C  0.44582109  0.15526294  0.23507626     0.18900
C769        C  0.46449311  0.18118978  0.22934773    -0.09000
C770        C  0.46150724  0.19383783  0.20575697    -0.02000
H771        H  0.41008166  0.12244105  0.22102507     0.05400
C772        C  0.44984654  0.14066769  0.25809209     0.20900
H773        H  0.47639640  0.21345529  0.20105306     0.10600
C774        C  0.45631325  0.12187335  0.25061510    -0.15400
C775        C  0.46341431  0.10973541  0.27140229     0.03600
C776        C  0.46419425  0.11651515  0.30055511    -0.10700
C777        C  0.45630853  0.13441725  0.30798600    -0.00700
C778        C  0.44898248  0.14628342  0.28709881    -0.05900
H779        H  0.45680661  0.11733522  0.22824750     0.06600
H780        H  0.45615373  0.13952760  0.33019737     0.10000
Br781      Br  0.49570159  0.19931795  0.25135754    -0.05600
Br782      Br  0.39197495  0.13580615  0.16897142    -0.02500
Br783      Br  0.47362804  0.08576407  0.25774768     0.00300
Br784      Br  0.43802926  0.17008434  0.29905871    -0.04000
C785        C  0.47234428  0.12289054  0.46264484    -0.11400
C786        C  0.46839074  0.14420084  0.45821925     0.04000
C787        C  0.46433166  0.15637960  0.48157396    -0.12000
C788        C  0.46415026  0.14876952  0.01041003     0.18900
C789        C  0.46319581  0.12483010  0.01325945    -0.09000
C790        C  0.47119824  0.11395761  0.49075711    -0.02000
H791        H  0.46139077  0.17267247  0.47795811     0.05400
C792        C  0.45948645  0.16155000  0.03497202     0.20900
H793        H  0.47422289  0.09779002  0.49484035     0.10600
C794        C  0.43481754  0.14997065  0.04736461    -0.15400
C795        C  0.42978905  0.16143967  0.07069017     0.03600
C796        C  0.44955086  0.18503511  0.08179596    -0.10700
C797        C  0.47403466  0.19698512  0.06896188    -0.00700
C798        C  0.47914964  0.18539266  0.04578192    -0.05900
H799        H  0.41946242  0.13186923  0.03892505     0.06600
H800        H  0.48944573  0.21493858  0.07762523     0.10000
Br801      Br  0.45704842  0.10759121  0.04943895    -0.05600
Br802      Br  0.46715352  0.15734174  0.42110049    -0.02500
Br803      Br  0.39557627  0.14436666  0.08646273     0.00300
Br804      Br  0.51254720  0.20278277  0.52600133    -0.04000
C805        C  0.44370401  0.23126229  0.63140893     0.03700
C806        C  0.44676798  0.22067636  0.60586050    -0.12500
C807        C  0.44634285  0.19692064  0.60619590     0.01200
C808        C  0.44351325  0.18419939  0.63223678    -0.11000
C809        C  0.44075507  0.19471622  0.65787087     0.03600
C810        C  0.44091757  0.21831330  0.65736738    -0.10400
H811        H  0.44918177  0.23072620  0.58582092     0.09200
H812        H  0.44411606  0.16635638  0.63261867     0.06800
H813        H  0.43908080  0.22671333  0.67718904     0.06600
C814        C  0.26800693  0.86134657  0.87240094     0.03700
C815        C  0.25548570  0.84773345  0.89731539    -0.12500
C816        C  0.23223093  0.82420639  0.89555854     0.01200
C817        C  0.22116652  0.81438622  0.86883868    -0.11000
C818        C  0.23360671  0.82731837  0.84371217     0.03600
C819        C  0.25709939  0.85080791  0.84557056    -0.10400
H820        H  0.26444933  0.85476649  0.91799189     0.09200
H821        H  0.20358143  0.79575527  0.86758169     0.06800
H822        H  0.26708382  0.86060516  0.82616911     0.06600
C823        C  0.87348122  0.19271163  0.61830066     0.03700
C824        C  0.88670403  0.20492963  0.64361703    -0.12500
C825        C  0.90954172  0.22895354  0.64260707     0.01200
C826        C  0.91958294  0.24040210  0.61609606    -0.11000
C827        C  0.90698145  0.22834700  0.59064684     0.03600
C828        C  0.88361966  0.20476145  0.59188250    -0.10400
H829        H  0.87857623  0.19635929  0.66417283     0.09200
H830        H  0.93675740  0.25939393  0.61535651     0.06800
H831        H  0.87302843  0.19621677  0.57237288     0.06600
C832        C  0.69511873  0.82066180  0.87682637     0.03700
C833        C  0.69627407  0.83291029  0.85083124    -0.12500
C834        C  0.69490966  0.85564906  0.85044976     0.01200
C835        C  0.69333768  0.86674078  0.87616554    -0.11000
C836        C  0.69213668  0.85471873  0.90220780     0.03600
C837        C  0.69311098  0.83169755  0.90256928    -0.10400
H838        H  0.69725113  0.82422007  0.83083235     0.09200
H839        H  0.69209627  0.88426161  0.87582773     0.06800
H840        H  0.69227454  0.82243086  0.92273658     0.06600
C841        C  0.91078401  0.67207720  0.62771907     0.03700
C842        C  0.89622066  0.66847459  0.65257710    -0.12500
C843        C  0.87215695  0.66727002  0.65092406     0.01200
C844        C  0.86333474  0.67084535  0.62446588    -0.11000
C845        C  0.87760162  0.67406323  0.59953010     0.03600
C846        C  0.90134735  0.67470502  0.60123257    -0.10400
H847        H  0.90292254  0.66519890  0.67282305     0.09200
H848        H  0.84450016  0.66933085  0.62299723     0.06800
H849        H  0.91189632  0.67604907  0.58183294     0.06600
C850        C  0.24415226  0.40980701  0.87844928     0.03700
C851        C  0.25475898  0.40953979  0.85176264    -0.12500
C852        C  0.27886992  0.41094764  0.85015726     0.01200
C853        C  0.29175072  0.41141519  0.87536389    -0.11000
C854        C  0.28153100  0.41192095  0.90215149     0.03600
C855        C  0.25775352  0.41139350  0.90358380    -0.10400
H856        H  0.24471937  0.40921128  0.83232498     0.09200
H857        H  0.31027245  0.41219931  0.87407096     0.06800
H858        H  0.25002282  0.41259286  0.92411132     0.06600
O859        O  0.97455881  0.34680090  0.83082212    -0.78000
C860        C  0.98557038  0.34955513  0.92310151     0.83100
O861        O  0.96146693  0.41482677  0.86052762    -0.79100
O862        O  0.03330520  0.43552586  0.92618726    -0.80600
O863        O  0.06453779  0.40455451  0.84703736    -0.80400
O864        O  0.01076450  0.36992042  0.80625018    -0.79000
Zn865      Zn  0.97694364  0.36748382  0.86546778     1.55700
O866        O  0.06246504  0.40659645  0.89450331    -0.80400
Cd867      Cd  0.03055706  0.40236682  0.83269567     1.59700
Cd868      Cd  0.00090438  0.42930051  0.86421861     1.59600
O869        O  0.04083703  0.43568098  0.80907235    -0.79200
O870        O  0.00869216  0.40039387  0.86619523    -1.90900
Cd871      Cd  0.02706847  0.40330409  0.90292504     1.59900
O872        O  0.01932574  0.45295695  0.82976970    -0.80300
O873        O  0.00643076  0.37067456  0.92810791    -0.79000
C874        C  0.94269361  0.39166960  0.86207194     0.83500
C875        C  0.98864517  0.34965949  0.80919730     0.83200
O876        O  0.97343997  0.34614493  0.89977013    -0.77900
C877        C  0.07414037  0.40627566  0.87187268     0.84000
O878        O  0.94618593  0.37242650  0.86487107    -0.78000
C879        C  0.03460616  0.45325274  0.81060566     0.84100
C880        C  0.02732812  0.45303542  0.92206681     0.84500
O881        O  0.01453025  0.45284139  0.90014901    -0.80500
O882        O  0.16833501  0.70992569  0.58199387    -0.78000
C883        C  0.15962110  0.70652337  0.67608139     0.83100
O884        O  0.17898334  0.63871475  0.61552288    -0.79100
O885        O  0.10658558  0.62141519  0.67754824    -0.80600
O886        O  0.08010053  0.65513411  0.59787067    -0.80400
O887        O  0.13252478  0.68479749  0.55719687    -0.79000
Zn888      Zn  0.16662645  0.68876033  0.61688087     1.55700
O889        O  0.08198422  0.65593120  0.64538669    -0.80400
Cd890      Cd  0.11224536  0.65359039  0.58440137     1.59700
Cd891      Cd  0.13988762  0.62598048  0.61662215     1.59600
O892        O  0.10032546  0.61959145  0.56140091    -0.80400
O893        O  0.13398265  0.65616021  0.61811357    -1.90900
Cd894      Cd  0.11537983  0.65452759  0.65437942     1.59900
O895        O  0.12226020  0.60252239  0.58142551    -0.80300
O896        O  0.13808266  0.68594813  0.68035743    -0.79000
C897        C  0.19864630  0.66140432  0.61493198     0.83500
C898        C  0.15398427  0.70579390  0.56013224     0.83200
O899        O  0.17195854  0.71014067  0.65273209    -0.77900
C900        C  0.07114766  0.65652907  0.62208355     0.84000
O901        O  0.19631150  0.68151777  0.61511184    -0.78000
C902        C  0.10654306  0.60202066  0.56261871     0.84100
C903        C  0.11195056  0.60341254  0.67390874     0.84500
O904        O  0.12446776  0.60272292  0.65220150    -0.80500
O905        O  0.48294499  0.12238526  0.84456150    -0.78000
C906        C  0.47997904  0.11321892  0.93851891     0.83100
O907        O  0.56551392  0.13464948  0.87994789    -0.79100
O908        O  0.50974149  0.05817141  0.93717950    -0.80600
O909        O  0.45199711  0.03377296  0.85699705    -0.80400
O910        O  0.47364360  0.08750520  0.81875592    -0.79000
Zn911      Zn  0.50280434  0.12028973  0.87852611     1.55700
O912        O  0.45212360  0.03427663  0.90474740    -0.80400
Cd913      Cd  0.48505386  0.06717449  0.84508094     1.59700
Cd914      Cd  0.53971063  0.09537014  0.87933470     1.59600
O915        O  0.50870219  0.05764767  0.82168826    -0.80400
O916        O  0.50325475  0.08804025  0.87954412    -1.90900
Cd917      Cd  0.48590129  0.06824353  0.91505209     1.59900
O918        O  0.54677709  0.07983193  0.84358875    -0.80300
O919        O  0.47763823  0.09091255  0.94204537    -0.79000
C920        C  0.56159790  0.15367080  0.87729329     0.83500
C921        C  0.47375826  0.10875274  0.82205874     0.83200
O922        O  0.48848004  0.12543561  0.91515075    -0.77900
C923        C  0.44182423  0.02368750  0.88094888     0.84000
O924        O  0.53891355  0.15050930  0.87569184    -0.78000
C925        C  0.53273317  0.06501112  0.82359928     0.84100
C926        C  0.53318085  0.06378028  0.93379659     0.84500
O927        O  0.54707127  0.07827387  0.91354279    -0.80500
O928        O  0.65084455  0.92894294  0.59358760    -0.78000
C929        C  0.66438043  0.94050774  0.68451973     0.83100
O930        O  0.57359409  0.92337853  0.63350682    -0.79100
O931        O  0.63420533  0.99570396  0.69157229    -0.80600
O932        O  0.68930279  0.01974606  0.60806620    -0.80400
O933        O  0.66508792  0.96559287  0.56926531    -0.79000
Zn934      Zn  0.63457087  0.93293206  0.62917213     1.55700
O935        O  0.69003313  0.01914366  0.65559226    -0.80400
Cd936      Cd  0.65562630  0.98689863  0.59656293     1.59700
Cd937      Cd  0.60172592  0.96194260  0.63199847     1.59600
O938        O  0.63309260  0.99804944  0.57406453    -0.80400
O939        O  0.63713851  0.96649540  0.63111169    -1.90900
Cd940      Cd  0.65637929  0.98543065  0.66633626     1.59900
O941        O  0.59511832  0.97830726  0.59653175    -0.80300
O942        O  0.66683992  0.96259667  0.68969910    -0.79000
C943        C  0.57555474  0.90312870  0.63190526     0.83500
C944        C  0.66200441  0.94297278  0.57193072     0.83200
O945        O  0.65274053  0.92778224  0.66222641    -0.77900
C946        C  0.70017114  0.02973880  0.63181138     0.84000
O947        O  0.59743173  0.90438333  0.62976320    -0.78000
C948        C  0.60965228  0.99258114  0.57648253     0.84100
C949        C  0.61155189  0.99246092  0.68828904     0.84500
O950        O  0.59744555  0.98024625  0.66696949    -0.80500
C951        C  0.71508210  0.33359067  0.86938072     0.80700
N952        N  0.73918460  0.33660102  0.86780807    -0.77600
C953        C  0.76033835  0.36033102  0.86412560     0.83200
N954        N  0.75707728  0.38130608  0.86227121    -0.77500
C955        C  0.73309849  0.37857669  0.86343594     0.83300
N956        N  0.71225812  0.35468885  0.86700683    -0.79200
C957        C  0.42409666  0.72188279  0.62877013     0.80700
N958        N  0.42979516  0.70247141  0.62853302    -0.77600
C959        C  0.41063910  0.67733190  0.62779283     0.83200
N960        N  0.38557094  0.67169369  0.62786222    -0.77500
C961        C  0.37963951  0.69089866  0.62863603     0.83300
N962        N  0.39899783  0.71587985  0.62893145    -0.79200
O963        O  0.39234958  0.44687562  0.58808737    -0.78000
C964        C  0.39087384  0.43748802  0.68075350     0.83100
O965        O  0.46173609  0.52706176  0.62720863    -0.79100
O966        O  0.47641657  0.46873432  0.68730382    -0.80600
O967        O  0.44802005  0.41234690  0.60575036    -0.80400
O968        O  0.41662434  0.43411642  0.56499430    -0.79000
Zn969      Zn  0.41204964  0.46512621  0.62369049     1.55700
O970        O  0.44420321  0.41201211  0.65305910    -0.80400
Cd971      Cd  0.44784120  0.44560622  0.59268507     1.59700
Cd972      Cd  0.47421317  0.50025871  0.62766259     1.59600
O973        O  0.48225040  0.46928607  0.57081897    -0.80400
O974        O  0.44412559  0.46416090  0.62651397    -1.90900
Cd975      Cd  0.44395651  0.44581403  0.66244946     1.59900
O976        O  0.49901656  0.50703094  0.59359723    -0.80300
O977        O  0.41094546  0.43586608  0.68620951    -0.79000
C978        C  0.43921299  0.52437014  0.62523191     0.83500
C979        C  0.39625515  0.43593237  0.56680249     0.83200
O980        O  0.38896200  0.44769231  0.65762177    -0.77900
C981        C  0.44626053  0.40180881  0.63002380     0.84000
O982        O  0.41906876  0.50209767  0.62297934    -0.78000
C983        C  0.49995009  0.49287899  0.57371712     0.84100
C984        C  0.49486165  0.49204988  0.68504749     0.84500
O985        O  0.49619239  0.50629906  0.66410292    -0.80500
O986        O  0.75292686  0.60699290  0.84137840    -0.78000
C987        C  0.75056625  0.62059244  0.93298753     0.83100
O988        O  0.68204386  0.52817495  0.87570507    -0.79100
O989        O  0.66523869  0.58816599  0.93450703    -0.80600
O990        O  0.69885897  0.64282040  0.85016044    -0.80400
O991        O  0.72861491  0.61665454  0.81403219    -0.79000
Zn992      Zn  0.73189869  0.59046222  0.87684867     1.55700
O993        O  0.69755547  0.64345000  0.89764547    -0.80400
Cd994      Cd  0.69768151  0.60832420  0.84068524     1.59700
Cd995      Cd  0.66962254  0.55499430  0.87806260     1.59600
O996        O  0.66336416  0.58505481  0.81901890    -0.80400
O997        O  0.69968073  0.59105856  0.87646118    -1.90900
Cd998      Cd  0.69805511  0.61057628  0.91029385     1.59900
O999        O  0.64453229  0.54866426  0.84452738    -0.80300
O1000       O  0.73032247  0.62247291  0.93588046    -0.79000
C1001       C  0.70478175  0.53127428  0.87537703     0.83500
C1002       C  0.74921645  0.61558385  0.81803761     0.83200
O1003       O  0.75336824  0.60892128  0.91166840    -0.77900
C1004       C  0.69821153  0.65354794  0.87343996     0.84000
O1005       O  0.72478915  0.55371701  0.87635252    -0.78000
C1006       C  0.64452393  0.56231760  0.82359458     0.84100
C1007       C  0.64802735  0.56428363  0.93387776     0.84500
O1008       O  0.64808140  0.54894610  0.91492922    -0.80500
C1009       C  0.62206322  0.55148283  0.80393529    -0.11400
C1010       C  0.59648566  0.53523714  0.81367270     0.04000
C1011       C  0.57590934  0.52531965  0.79423927    -0.12000
C1012       C  0.58021627  0.53129334  0.76509346     0.18900
C1013       C  0.60560732  0.54773071  0.75538089    -0.09000
C1014       C  0.62622795  0.55771546  0.77474884    -0.02000
H1015       H  0.55635392  0.51312962  0.80194926     0.05400
C1016       C  0.55789823  0.52092006  0.74531332     0.20900
H1017       H  0.64567254  0.57013459  0.76686665     0.10600
C1018       C  0.55089875  0.53792527  0.73296429    -0.15400
C1019       C  0.53026037  0.52902243  0.71372298     0.03600
C1020       C  0.51587631  0.50241540  0.70670772    -0.10700
C1021       C  0.52258475  0.48533877  0.71979263    -0.00700
C1022       C  0.54346207  0.49438792  0.73876963    -0.05900
H1023       H  0.56168848  0.55832937  0.73826664     0.06600
H1024       H  0.51206039  0.46491548  0.71456963     0.10000
Br1025     Br  0.61313258  0.55644097  0.71574097    -0.05600
Br1026     Br  0.58801087  0.52729949  0.85335550    -0.02500
Br1027     Br  0.52251024  0.55430489  0.69883481     0.00300
Br1028     Br  0.55242147  0.47003351  0.75401272    -0.04000
C1029       C  0.52284366  0.50421873  0.55434140    -0.11400
C1030       C  0.52214539  0.49497366  0.52631134     0.04000
C1031       C  0.54455410  0.50614347  0.50948358    -0.12000
C1032       C  0.56803695  0.52638367  0.51989717     0.18900
C1033       C  0.56878408  0.53578341  0.54768458    -0.09000
C1034       C  0.54639360  0.52479672  0.56450386    -0.02000
H1035       H  0.53908232  0.49239241  0.98680273     0.05400
C1036       C  0.58685024  0.53234919  0.99614891     0.20900
H1037       H  0.54760214  0.53216040  0.58597366     0.10600
C1038       C  0.59526692  0.55707948  0.98492473    -0.15400
C1039       C  0.61531604  0.56797952  0.96491092     0.03600
C1040       C  0.62727277  0.55392520  0.95563060    -0.10700
C1041       C  0.61868461  0.52908700  0.96681648    -0.00700
C1042       C  0.59878825  0.51834457  0.98703621    -0.05900
H1043       H  0.58589391  0.56782620  0.99151223     0.06600
H1044       H  0.62769638  0.51805937  0.96001630     0.10000
Br1045     Br  0.60013641  0.56286230  0.56412131    -0.05600
Br1046     Br  0.49120765  0.46815387  0.50889347    -0.02500
Br1047     Br  0.62405584  0.60124705  0.94962269     0.00300
Br1048     Br  0.58957208  0.48819777  0.50282718    -0.04000
C1049       C  0.41664457  0.65602240  0.62783228    -0.11400
C1050       C  0.43834309  0.65769461  0.61356031     0.04000
C1051       C  0.44218926  0.63636217  0.61339929    -0.12000
C1052       C  0.42487725  0.61333594  0.62730725     0.18900
C1053       C  0.40385097  0.61193534  0.64235637    -0.09000
C1054       C  0.39974069  0.63302349  0.64227893    -0.02000
H1055       H  0.45854470  0.63757065  0.60194909     0.05400
C1056       C  0.42894428  0.59089004  0.62589025     0.20900
H1057       H  0.38328683  0.63146930  0.65383731     0.10600
C1058       C  0.44781943  0.59048204  0.64325703    -0.15400
C1059       C  0.45147826  0.56907745  0.64336798     0.03600
C1060       C  0.43623257  0.54760248  0.62555589    -0.10700
C1061       C  0.41734770  0.54817152  0.60809135    -0.00700
C1062       C  0.41373337  0.56962799  0.60804223    -0.05900
H1063       H  0.45936008  0.60668557  0.65731687     0.06600
H1064       H  0.40546788  0.53193081  0.59422855     0.10000
Br1065     Br  0.38058441  0.58176481  0.66378865    -0.05600
Br1066     Br  0.46256906  0.68765483  0.59238702    -0.02500
Br1067     Br  0.47600682  0.56961706  0.67015336     0.00300
Br1068     Br  0.38804352  0.56930032  0.58309388    -0.04000
C1069       C  0.72980874  0.40154155  0.86259984    -0.11400
C1070       C  0.70886231  0.40131295  0.84823097     0.04000
C1071       C  0.70554373  0.42289641  0.84971249    -0.12000
C1072       C  0.72279012  0.44490902  0.86525446     0.18900
C1073       C  0.74381085  0.44527516  0.87942022    -0.09000
C1074       C  0.74732731  0.42381944  0.87772582    -0.02000
H1075       H  0.68939476  0.42253608  0.83864551     0.05400
C1076       C  0.71798391  0.46689727  0.86716022     0.20900
H1077       H  0.76332770  0.42420989  0.88916220     0.10600
C1078       C  0.69634951  0.46380612  0.88230414    -0.15400
C1079       C  0.69135443  0.48428587  0.88506654     0.03600
C1080       C  0.70847258  0.50857037  0.87275521    -0.10700
C1081       C  0.72985680  0.51136718  0.85714644    -0.00700
C1082       C  0.73445340  0.49072011  0.85390311    -0.05900
H1083       H  0.68341896  0.44539422  0.89229511     0.06600
H1084       H  0.74284505  0.52961980  0.84688637     0.10000
Br1085     Br  0.76726091  0.47393148  0.90276893    -0.05600
Br1086     Br  0.68482821  0.37271139  0.82516887    -0.02500
Br1087     Br  0.66161757  0.47803695  0.90702951     0.00300
Br1088     Br  0.76271593  0.49559977  0.83008621    -0.04000
C1089       C  0.44512720  0.74923529  0.62977765    -0.11400
C1090       C  0.44278650  0.76962591  0.61728530     0.04000
C1091       C  0.46354045  0.79499750  0.61859041    -0.12000
C1092       C  0.48668969  0.80054861  0.63205004     0.18900
C1093       C  0.48889087  0.78050620  0.64508455    -0.09000
C1094       C  0.46831242  0.75512436  0.64370422    -0.02000
H1095       H  0.46186635  0.81042659  0.60841540     0.05400
C1096       C  0.50882105  0.82712975  0.63113985     0.20900
H1097       H  0.47042624  0.73993219  0.65380998     0.10600
C1098       C  0.50919136  0.84611062  0.64909793    -0.15400
C1099       C  0.53056142  0.87119342  0.64951058     0.03600
C1100       C  0.55202414  0.87740487  0.63175111    -0.10700
C1101       C  0.55126094  0.85840205  0.61343398    -0.00700
C1102       C  0.52979715  0.83354428  0.61277810    -0.05900
H1103       H  0.49300314  0.84123222  0.66322476     0.06600
H1104       H  0.56738437  0.86298560  0.59931106     0.10000
Br1105     Br  0.51959569  0.78701807  0.66522383    -0.05600
Br1106     Br  0.41282654  0.76439494  0.59635685    -0.02500
Br1107     Br  0.52997483  0.89542595  0.67607488     0.00300
Br1108     Br  0.52972661  0.80906831  0.58610726    -0.04000
C1109       C  0.58391597  0.18012996  0.87675045    -0.11400
C1110       C  0.58524334  0.19895183  0.85747400     0.04000
C1111       C  0.60663974  0.22393015  0.85800041    -0.12000
C1112       C  0.62678708  0.23054346  0.87752823     0.18900
C1113       C  0.62530980  0.21196068  0.89709823    -0.09000
C1114       C  0.60410200  0.18687208  0.89637369    -0.02000
H1115       H  0.60780514  0.23817187  0.84277659     0.05400
C1116       C  0.64955386  0.25670343  0.87639475     0.20900
H1117       H  0.60313369  0.17269799  0.91156588     0.10600
C1118       C  0.64768057  0.27769828  0.88682766    -0.15400
C1119       C  0.66872441  0.30290368  0.88522973     0.03600
C1120       C  0.69217362  0.30737283  0.87254517    -0.10700
C1121       C  0.69372191  0.28608528  0.86209664    -0.00700
C1122       C  0.67277206  0.26098684  0.86398309    -0.05900
H1123       H  0.62976465  0.27440110  0.89641852     0.06600
H1124       H  0.71111099  0.28893117  0.85171230     0.10000
Br1125     Br  0.65147878  0.22023295  0.92553755    -0.05600
Br1126     Br  0.55935012  0.19128659  0.82879639    -0.02500
Br1127     Br  0.66402949  0.32970041  0.90196222     0.00300
Br1128     Br  0.67645803  0.23323968  0.84837367    -0.04000
C1129       C  0.54462088  0.05330827  0.95410291    -0.11400
C1130       C  0.56210510  0.04521290  0.94515801     0.04000
C1131       C  0.57265153  0.03569077  0.96521159    -0.12000
C1132       C  0.56593737  0.03383561  0.99410941     0.18900
C1133       C  0.54856582  0.04038443  0.50448527    -0.09000
C1134       C  0.53788995  0.05129995  0.98312024    -0.02000
H1135       H  0.58585605  0.02929323  0.95817705     0.05400
C1136       C  0.57617885  0.02074357  0.51530619     0.20900
H1137       H  0.52457904  0.05748499  0.99036879     0.10600
C1138       C  0.60162949  0.03690694  0.52453456    -0.15400
C1139       C  0.61300305  0.02815529  0.54444256     0.03600
C1140       C  0.59872797  0.00272122  0.55526770    -0.10700
C1141       C  0.57323472  0.98660135  0.54585373    -0.00700
C1142       C  0.56198883  0.99537432  0.52587371    -0.05900
H1143       H  0.61251059  0.05655039  0.51655740     0.06600
H1144       H  0.56208910  0.96699139  0.55385802     0.10000
Br1145     Br  0.54171715  0.04158988  0.54432456    -0.05600
Br1146     Br  0.57095086  0.04485234  0.90576106    -0.02500
Br1147     Br  0.64725858  0.05241279  0.55748326     0.00300
Br1148     Br  0.52855667  0.97438279  0.00993187    -0.04000
C1149       C  0.54454679  0.05539454  0.80268658    -0.11400
C1150       C  0.57085038  0.07019033  0.79464481     0.04000
C1151       C  0.58164294  0.05954105  0.77644584    -0.12000
C1152       C  0.56667669  0.03442820  0.76575331     0.18900
C1153       C  0.54041344  0.01975411  0.77330390    -0.09000
C1154       C  0.52953137  0.03031051  0.79152792    -0.02000
H1155       H  0.60177282  0.07104744  0.77025449     0.05400
C1156       C  0.57865123  0.02420064  0.74602469     0.20900
H1157       H  0.50938658  0.01858931  0.79755397     0.10600
C1158       C  0.59517444  0.01581413  0.75677028    -0.15400
C1159       C  0.60655904  0.00573070  0.73849116     0.03600
C1160       C  0.60118488  0.00380040  0.70889059    -0.10700
C1161       C  0.58496780  0.01272113  0.69831636    -0.00700
C1162       C  0.57397849  0.02308383  0.71651708    -0.05900
H1163       H  0.59899112  0.01687227  0.77953622     0.06600
H1164       H  0.58101426  0.01192034  0.67560105     0.10000
Br1165     Br  0.51894141  0.98502069  0.75980337    -0.05600
Br1166     Br  0.59279405  0.10549450  0.80626474    -0.02500
Br1167     Br  0.62799536  0.99377524  0.75548941     0.00300
Br1168     Br  0.55327665  0.03614709  0.70007830    -0.04000
C1169       C  0.22477036  0.66425103  0.61514903    -0.11400
C1170       C  0.24648668  0.68574803  0.60281674     0.04000
C1171       C  0.27088814  0.68798184  0.60497436    -0.12000
C1172       C  0.27425582  0.66922811  0.61926634     0.18900
C1173       C  0.25271846  0.64775754  0.63148016    -0.09000
C1174       C  0.22822735  0.64527133  0.62905891    -0.02000
H1175       H  0.28745633  0.70459877  0.59558638     0.05400
C1176       C  0.30069575  0.67346822  0.62259706     0.20900
H1177       H  0.21192416  0.62880551  0.63900369     0.10600
C1178       C  0.31815809  0.69390500  0.63992535    -0.15400
C1179       C  0.34378759  0.69964444  0.64268976     0.03600
C1180       C  0.35236733  0.68469040  0.62782590    -0.10700
C1181       C  0.33464465  0.66386614  0.61090654    -0.00700
C1182       C  0.30906022  0.65835693  0.60795787    -0.05900
H1183       H  0.31177104  0.70554235  0.65133264     0.06600
H1184       H  0.34093319  0.65234377  0.59911091     0.10000
Br1185     Br  0.25602976  0.62228437  0.65324311    -0.05600
Br1186     Br  0.24430801  0.71234230  0.58196506    -0.02500
Br1187     Br  0.36553448  0.72742495  0.66805800     0.00300
Br1188     Br  0.28675614  0.63110371  0.58241145    -0.04000
C1189       C  0.91603939  0.38678424  0.86119841    -0.11400
C1190       C  0.90729235  0.39652620  0.83911189     0.04000
C1191       C  0.88179077  0.39155231  0.83932022    -0.12000
C1192       C  0.86487243  0.37722650  0.86151634     0.18900
C1193       C  0.87352054  0.36702808  0.88328154    -0.09000
C1194       C  0.89889443  0.37170806  0.88283871    -0.02000
H1195       H  0.87510629  0.39892923  0.82212340     0.05400
C1196       C  0.83829545  0.37304225  0.86156900     0.20900
H1197       H  0.90545725  0.36401344  0.89983259     0.10600
C1198       C  0.81737671  0.34789324  0.85888978    -0.15400
C1199       C  0.79189164  0.34297631  0.85957631     0.03600
C1200       C  0.78689067  0.36378899  0.86278445    -0.10700
C1201       C  0.80819979  0.38907939  0.86488503    -0.00700
C1202       C  0.83358769  0.39379101  0.86431071    -0.05900
H1203       H  0.82096675  0.33187535  0.85631828     0.06600
H1204       H  0.80525710  0.40549266  0.86742430     0.10000
Br1205     Br  0.85189673  0.34760397  0.91473246    -0.05600
Br1206     Br  0.92891568  0.41538475  0.80746082    -0.02500
Br1207     Br  0.76581813  0.30729766  0.85536013     0.00300
Br1208     Br  0.86114652  0.42886615  0.86850568    -0.04000
C1209       C  0.03590800  0.47426605  0.94328086    -0.11400
C1210       C  0.04431415  0.50010925  0.93509814     0.04000
C1211       C  0.05408684  0.51978383  0.95568932    -0.12000
C1212       C  0.05572719  0.51431278  0.98446553     0.18900
C1213       C  0.04669010  0.48855979  0.99284666    -0.09000
C1214       C  0.03705819  0.46884031  0.97232215    -0.02000
H1215       H  0.06112739  0.53961356  0.94910294     0.05400
C1216       C  0.07577272  0.53882552  0.50234874     0.20900
H1217       H  0.03054928  0.44916139  0.97909635     0.10600
C1218       C  0.06029011  0.54886556  0.51188232    -0.15400
C1219       C  0.06984619  0.56944176  0.53137082     0.03600
C1220       C  0.09550857  0.58045774  0.54162163    -0.10700
C1221       C  0.11093960  0.57028513  0.53193702    -0.00700
C1222       C  0.10136422  0.54982967  0.51232505    -0.05900
H1223       H  0.04053198  0.54041586  0.50435694     0.06600
H1224       H  0.13070322  0.57851827  0.53936080     0.10000
Br1225     Br  0.05873888  0.48325383  0.52967070    -0.05600
Br1226     Br  0.04515499  0.51033824  0.89601572    -0.02500
Br1227     Br  0.04627056  0.58032116  0.54445494     0.00300
Br1228     Br  0.11553514  0.53447914  0.99608362    -0.04000
C1229       C  0.10275984  0.58215545  0.69491305    -0.11400
C1230       C  0.10439889  0.58664091  0.72466040     0.04000
C1231       C  0.09425813  0.56566915  0.74361019    -0.12000
C1232       C  0.08267423  0.54021566  0.73335970     0.18900
C1233       C  0.08163920  0.53575946  0.70377398    -0.09000
C1234       C  0.09176550  0.55664224  0.68483733    -0.02000
H1235       H  0.09538786  0.56920416  0.76644152     0.05400
C1236       C  0.07085204  0.51838895  0.75361930     0.20900
H1237       H  0.09045416  0.55287762  0.66204461     0.10600
C1238       C  0.04534721  0.50924563  0.76250508    -0.15400
C1239       C  0.03296646  0.48784081  0.78064618     0.03600
C1240       C  0.04628611  0.47519092  0.79027328    -0.10700
C1241       C  0.07186547  0.48442515  0.78114012    -0.00700
C1242       C  0.08419362  0.50590946  0.76309419    -0.05900
H1243       H  0.03488331  0.51860677  0.75489722     0.06600
H1244       H  0.08252481  0.47519225  0.78849063     0.10000
Br1245     Br  0.06588667  0.50139275  0.68838109    -0.05600
Br1246     Br  0.12155876  0.62090185  0.74051871    -0.02500
Br1247     Br  0.99745801  0.47607994  0.78991011     0.00300
Br1248     Br  0.11929337  0.51775483  0.75206630    -0.04000
C1249       C  0.21948145  0.40984919  0.87979766    -0.11400
C1250       C  0.19598196  0.38772265  0.87242594     0.04000
C1251       C  0.17312940  0.38880964  0.87213148    -0.12000
C1252       C  0.17330862  0.41176331  0.87907502     0.18900
C1253       C  0.19667164  0.43370596  0.88729415    -0.09000
C1254       C  0.21957818  0.43262505  0.88756479    -0.02000
H1255       H  0.15513873  0.37172273  0.86627850     0.05400
C1256       C  0.14871238  0.41201018  0.87795099     0.20900
H1257       H  0.23757108  0.44967802  0.89347264     0.10600
C1258       C  0.12987699  0.39829289  0.89870205    -0.15400
C1259       C  0.10553698  0.39626340  0.89723283     0.03600
C1260       C  0.09970480  0.40813800  0.87450867    -0.10700
C1261       C  0.11867031  0.42188632  0.85372981    -0.00700
C1262       C  0.14302431  0.42390882  0.85531657    -0.05900
H1263       H  0.13400140  0.38866540  0.91585931     0.06600
H1264       H  0.11453483  0.43109441  0.83613939     0.10000
Br1265     Br  0.19806401  0.46527902  0.89865746    -0.05600
Br1266     Br  0.19412112  0.35548242  0.86333644    -0.02500
Br1267     Br  0.08061669  0.37525672  0.92564943     0.00300
Br1268     Br  0.16749434  0.44214764  0.82549989    -0.04000
C1269       C  0.37641395  0.42529119  0.54385333    -0.11400
C1270       C  0.38278476  0.42532578  0.51474413     0.04000
C1271       C  0.35742322  0.41144188  0.00403086    -0.12000
C1272       C  0.34559233  0.42652453  0.00087024     0.18900
C1273       C  0.33119404  0.40813147  0.53017248    -0.09000
C1274       C  0.35036707  0.41602469  0.55117432    -0.02000
H1275       H  0.35364544  0.39646235  0.98849669     0.05400
C1276       C  0.32913905  0.42270282  0.97569053     0.20900
H1277       H  0.34487179  0.41507232  0.57341476     0.10600
C1278       C  0.30366527  0.40191961  0.97502530    -0.15400
C1279       C  0.28766945  0.39806301  0.95140230     0.03600
C1280       C  0.29715999  0.41536680  0.92811538    -0.10700
C1281       C  0.32275112  0.43603342  0.92888752    -0.00700
C1282       C  0.33874477  0.43966313  0.95226730    -0.05900
H1283       H  0.29630430  0.38858205  0.99283288     0.06600
H1284       H  0.33040623  0.44935499  0.91108263     0.10000
Br1285     Br  0.29597980  0.39457101  0.54203448    -0.05600
Br1286     Br  0.41737823  0.43708870  0.50172021    -0.02500
Br1287     Br  0.25381876  0.36799235  0.95121177     0.00300
Br1288     Br  0.37382952  0.46759657  0.95092890    -0.04000
C1289       C  0.36970939  0.42855886  0.70217224    -0.11400
C1290       C  0.36613787  0.41079869  0.72423000     0.04000
C1291       C  0.34801447  0.40580696  0.74585104    -0.12000
C1292       C  0.33297894  0.41783324  0.74575738     0.18900
C1293       C  0.33514109  0.43401434  0.72289130    -0.09000
C1294       C  0.35331316  0.43922675  0.70136842    -0.02000
H1295       H  0.34618162  0.39307285  0.76331916     0.05400
C1296       C  0.31778309  0.41604689  0.77137526     0.20900
H1297       H  0.35525540  0.45253621  0.68452430     0.10600
C1298       C  0.32859651  0.43649639  0.79098476    -0.15400
C1299       C  0.31570553  0.43544815  0.81622501     0.03600
C1300       C  0.29161277  0.41346198  0.82235583    -0.10700
C1301       C  0.28031450  0.39333481  0.80224983    -0.00700
C1302       C  0.29328496  0.39449502  0.77683922    -0.05900
H1303       H  0.34727800  0.45331967  0.78666385     0.06600
H1304       H  0.26168898  0.37647357  0.80663281     0.10000
Br1305     Br  0.31418371  0.45004471  0.72084022    -0.05600
Br1306     Br  0.38479540  0.39229153  0.72612141    -0.02500
Br1307     Br  0.33152832  0.46493244  0.84117903     0.00300
Br1308     Br  0.27700742  0.36648267  0.75017014    -0.04000
C1309       C  0.04763669  0.65912773  0.62329188    -0.11400
C1310       C  0.03984759  0.66904127  0.60013351     0.04000
C1311       C  0.01760888  0.67114263  0.60249386    -0.12000
C1312       C  0.00299432  0.66399667  0.62761756     0.18900
C1313       C  0.01080380  0.65460410  0.65085129    -0.09000
C1314       C  0.03289187  0.65219572  0.64857112    -0.02000
H1315       H  0.01176195  0.67866595  0.58464995     0.05400
C1316       C  0.97950870  0.66629254  0.62895273     0.20900
H1317       H  0.03851333  0.64482170  0.66672896     0.10600
C1318       C  0.95527783  0.64405863  0.62529425    -0.15400
C1319       C  0.93272518  0.64572135  0.62506981     0.03600
C1320       C  0.93426103  0.66986330  0.62879459    -0.10700
C1321       C  0.95845223  0.69209774  0.63263345    -0.00700
C1322       C  0.98105997  0.69046523  0.63260967    -0.05900
H1323       H  0.95397425  0.62544777  0.62218008     0.06600
H1324       H  0.95974554  0.71074475  0.63534738     0.10000
Br1325     Br  0.99222802  0.64555834  0.68629692    -0.05600
Br1326     Br  0.05913192  0.68171078  0.56523841    -0.02500
Br1327     Br  0.90023852  0.61470945  0.61894422     0.00300
Br1328     Br  0.01363252  0.72159659  0.63760577    -0.04000
C1329       C  0.76884924  0.62415877  0.79469161    -0.11400
C1330       C  0.79267796  0.62432671  0.79728932     0.04000
C1331       C  0.80978802  0.63201235  0.77411983    -0.12000
C1332       C  0.80390172  0.63964067  0.74821005     0.18900
C1333       C  0.78043637  0.63961667  0.74550458    -0.09000
C1334       C  0.76328377  0.63203338  0.76851689    -0.02000
H1335       H  0.82779117  0.63183451  0.77622708     0.05400
C1336       C  0.82202211  0.64673442  0.72388447     0.20900
H1337       H  0.74534855  0.63219901  0.76568678     0.10600
C1338       C  0.81472165  0.63030121  0.70008471    -0.15400
C1339       C  0.83093343  0.63661561  0.67633059     0.03600
C1340       C  0.85502477  0.65974947  0.67616586    -0.10700
C1341       C  0.86265739  0.67586848  0.70028665    -0.00700
C1342       C  0.84630924  0.66956956  0.72402618    -0.05900
H1343       H  0.79626710  0.61250167  0.69999174     0.06600
H1344       H  0.88113706  0.69363157  0.70040204     0.10000
Br1345     Br  0.77113958  0.65024256  0.71088722    -0.05600
Br1346     Br  0.80370141  0.61438511  0.83124105    -0.02500
Br1347     Br  0.81961668  0.61247479  0.64512830     0.00300
Br1348     Br  0.85740644  0.69321728  0.75559812    -0.04000
C1349       C  0.86513870  0.67158247  0.57163126    -0.11400
C1350       C  0.86049042  0.69093093  0.56088432     0.04000
C1351       C  0.84485453  0.68590843  0.53666332    -0.12000
C1352       C  0.83373545  0.66168558  0.52313444     0.18900
C1353       C  0.83931317  0.64279548  0.53325301    -0.09000
C1354       C  0.85499397  0.64787218  0.55727140    -0.02000
H1355       H  0.84070226  0.70054347  0.52891982     0.05400
C1356       C  0.81459364  0.65532005  0.50010468     0.20900
H1357       H  0.85826132  0.63281304  0.56560946     0.10600
C1358       C  0.81496936  0.64820971  0.97245823    -0.15400
C1359       C  0.79709943  0.63955227  0.94997440     0.03600
C1360       C  0.77085614  0.63171043  0.95543881    -0.10700
C1361       C  0.76362729  0.63411106  0.98339409    -0.00700
C1362       C  0.78867488  0.64727577  0.50661321    -0.05900
H1363       H  0.83488808  0.65361094  0.96822221     0.06600
H1364       H  0.74372186  0.62841351  0.98814738     0.10000
Br1365     Br  0.82427653  0.60906407  0.51628547    -0.05600
Br1366     Br  0.87478872  0.72413145  0.57892660    -0.02500
Br1367     Br  0.81025541  0.63997286  0.91242230     0.00300
Br1368     Br  0.77754177  0.64701256  0.54513060    -0.04000
C1369       C  0.69857649  0.67859410  0.87276833    -0.11400
C1370       C  0.68926619  0.68651724  0.84922502     0.04000
C1371       C  0.68970722  0.71017721  0.85023375    -0.12000
C1372       C  0.69922259  0.72619272  0.87426546     0.18900
C1373       C  0.70857641  0.71853389  0.89762243    -0.09000
C1374       C  0.70819899  0.69494730  0.89676497    -0.02000
H1375       H  0.68225336  0.71599462  0.83231363     0.05400
C1376       C  0.69849383  0.75048829  0.87497144     0.20900
H1377       H  0.71558124  0.68944151  0.91500256     0.10600
C1378       C  0.67720087  0.75055819  0.88742371    -0.15400
C1379       C  0.67570149  0.77319482  0.88821931     0.03600
C1380       C  0.69598611  0.79633082  0.87678163    -0.10700
C1381       C  0.71718590  0.79609396  0.86407317    -0.00700
C1382       C  0.71850294  0.77335805  0.86304409    -0.05900
H1383       H  0.66155499  0.73285117  0.89616650     0.06600
H1384       H  0.73273695  0.81364390  0.85494902     0.10000
Br1385     Br  0.72204194  0.73976844  0.93105472    -0.05600
Br1386     Br  0.67422287  0.66563381  0.81576869    -0.02500
Br1387     Br  0.64468464  0.77081883  0.90316617     0.00300
Br1388     Br  0.74784932  0.77427631  0.84515945    -0.04000
C1389       C  0.68892447  0.86607676  0.92874492    -0.11400
C1390       C  0.66491786  0.85503888  0.94287014     0.04000
C1391       C  0.66186062  0.86749690  0.96658101    -0.12000
C1392       C  0.68234912  0.89113640  0.97615152     0.18900
C1393       C  0.70636966  0.90215100  0.96214278    -0.09000
C1394       C  0.70951182  0.88959311  0.93856380    -0.02000
H1395       H  0.64323109  0.85913704  0.97708033     0.05400
C1396       C  0.67786959  0.90451484  0.00000755     0.20900
H1397       H  0.72790754  0.89840434  0.92752316     0.10600
C1398       C  0.68991934  0.90678310  0.53281866    -0.15400
C1399       C  0.68337816  0.91805110  0.55511483     0.03600
C1400       C  0.67094970  0.93238209  0.54903501    -0.10700
C1401       C  0.66581140  0.93557673  0.52053291    -0.00700
C1402       C  0.67116596  0.92364225  0.99492628    -0.05900
H1403       H  0.69935705  0.89571181  0.53761590     0.06600
H1404       H  0.65601882  0.94628236  0.51559984     0.10000
Br1405     Br  0.73505180  0.93455918  0.97411542    -0.05600
Br1406     Br  0.63523287  0.82422594  0.92920813    -0.02500
Br1407     Br  0.69281575  0.91411388  0.59325253     0.00300
Br1408     Br  0.66792404  0.93368555  0.95688308    -0.04000
C1409       C  0.67426025  0.92857555  0.70511719    -0.11400
C1410       C  0.69252355  0.94287323  0.72670409     0.04000
C1411       C  0.69872068  0.92992245  0.74737032    -0.12000
C1412       C  0.68725357  0.90295794  0.74690230     0.18900
C1413       C  0.67049837  0.88883886  0.72446906    -0.09000
C1414       C  0.66421535  0.90163137  0.70378950    -0.02000
H1415       H  0.71172556  0.94084595  0.76464057     0.05400
C1416       C  0.68960531  0.88972193  0.77225798     0.20900
H1417       H  0.65054634  0.89017904  0.68726455     0.10600
C1418       C  0.66819371  0.87745098  0.79043344    -0.15400
C1419       C  0.66962167  0.86597696  0.81573475     0.03600
C1420       C  0.69282693  0.86671936  0.82320719    -0.10700
C1421       C  0.71418476  0.87853640  0.80477975    -0.00700
C1422       C  0.71275773  0.89022068  0.77941582    -0.05900
H1423       H  0.65035853  0.87709486  0.78503173     0.06600
H1424       H  0.73204830  0.87905819  0.81039486     0.10000
Br1425     Br  0.65498863  0.85192691  0.72194450    -0.05600
Br1426     Br  0.70980714  0.97988128  0.72973487    -0.02500
Br1427     Br  0.63919215  0.84916068  0.83912398     0.00300
Br1428     Br  0.74258356  0.90645974  0.75517186    -0.04000
C1429       C  0.72509408  0.05448815  0.63121054    -0.11400
C1430       C  0.74363344  0.06238002  0.65343440     0.04000
C1431       C  0.76716218  0.08551812  0.65085544    -0.12000
C1432       C  0.77271812  0.10109253  0.62654361     0.18900
C1433       C  0.75428594  0.09354495  0.60460350    -0.09000
C1434       C  0.73077466  0.07048562  0.60704988    -0.02000
H1435       H  0.78144633  0.09122353  0.66771770     0.05400
C1436       C  0.79819596  0.12473249  0.62410019     0.20900
H1437       H  0.71683532  0.06508811  0.58986516     0.10600
C1438       C  0.81661917  0.12495970  0.60536548    -0.15400
C1439       C  0.84128115  0.14675269  0.60314324     0.03600
C1440       C  0.84774852  0.16891267  0.61984676    -0.10700
C1441       C  0.82908754  0.16855055  0.63848110    -0.00700
C1442       C  0.80454402  0.14670007  0.64076248    -0.05900
H1443       H  0.81188381  0.10794757  0.59274834     0.06600
H1444       H  0.83353203  0.18544773  0.65115788     0.10000
Br1445     Br  0.76022984  0.11431405  0.57111307    -0.05600
Br1446     Br  0.73918679  0.04215024  0.68705465    -0.02500
Br1447     Br  0.86557164  0.14430780  0.57831349     0.00300
Br1448     Br  0.78010695  0.14790149  0.66641898    -0.04000
C1449       C  0.92100866  0.24415674  0.66890820    -0.11400
C1450       C  0.93130441  0.23584028  0.69092691     0.04000
C1451       C  0.94257161  0.25163212  0.71495270    -0.12000
C1452       C  0.94357640  0.27558808  0.71731715     0.18900
C1453       C  0.93336444  0.28383031  0.69523869    -0.09000
C1454       C  0.92217131  0.26814460  0.67140936    -0.02000
H1455       H  0.95057277  0.24526135  0.73178365     0.05400
C1456       C  0.95523728  0.29204123  0.74275147     0.20900
H1457       H  0.91436015  0.27476326  0.65460472     0.10600
C1458       C  0.98220665  0.30700362  0.74507681    -0.15400
C1459       C  0.99374950  0.32536993  0.76694966     0.03600
C1460       C  0.97806857  0.32917873  0.78680944    -0.10700
C1461       C  0.95102389  0.31306695  0.78505802    -0.00700
C1462       C  0.93964122  0.29462777  0.76343182    -0.05900
H1463       H  0.99432422  0.30477809  0.72940437     0.06600
H1464       H  0.93846705  0.31519255  0.80018344     0.10000
Br1465     Br  0.93477634  0.31667931  0.69634405    -0.05600
Br1466     Br  0.93155049  0.20386437  0.68846086    -0.02500
Br1467     Br  0.03082714  0.34373762  0.76886749     0.00300
Br1468     Br  0.90262474  0.27371123  0.76252886    -0.04000
C1469       C  0.97504857  0.32880507  0.94510419    -0.11400
C1470       C  0.94941694  0.30743879  0.94399778     0.04000
C1471       C  0.94003511  0.28966438  0.96646141    -0.12000
C1472       C  0.94884879  0.29337993  0.49184675     0.18900
C1473       C  0.96374953  0.31995483  0.49787844    -0.09000
C1474       C  0.99073386  0.33090529  0.96862030    -0.02000
H1475       H  0.92016635  0.27396642  0.96596161     0.05400
C1476       C  0.93710020  0.27437168  0.51510465     0.20900
H1477       H  0.01045931  0.34677189  0.96995316     0.10600
C1478       C  0.95285272  0.26794012  0.53124896    -0.15400
C1479       C  0.94301278  0.25181373  0.55506829     0.03600
C1480       C  0.91700639  0.24207309  0.56321270    -0.10700
C1481       C  0.90095320  0.24757400  0.54616415    -0.00700
C1482       C  0.91081630  0.26358115  0.52220059    -0.05900
H1483       H  0.97300407  0.27588121  0.52555362     0.06600
H1484       H  0.88096944  0.24028598  0.55216985     0.10000
Br1485     Br  0.96821253  0.33300384  0.53617769    -0.05600
Br1486     Br  0.92506686  0.30158442  0.91394410    -0.02500
Br1487     Br  0.96582731  0.24341516  0.57538486     0.00300
Br1488     Br  0.88815968  0.27136260  0.50070785    -0.04000
C1489       C  0.41687860  0.99932742  0.88076981    -0.11400
C1490       C  0.41266593  0.97760683  0.89692102     0.04000
C1491       C  0.38860251  0.95482725  0.89570092    -0.12000
C1492       C  0.36860561  0.95345809  0.87864800     0.18900
C1493       C  0.37287061  0.97511604  0.86250476    -0.09000
C1494       C  0.39691830  0.99772721  0.86347945    -0.02000
H1495       H  0.38548494  0.93810652  0.90797799     0.05400
C1496       C  0.34329808  0.92941976  0.87784319     0.20900
H1497       H  0.39996791  0.01427241  0.85088958     0.10600
C1498       C  0.32268125  0.92807468  0.89353234    -0.15400
C1499       C  0.29798831  0.90625643  0.89189934     0.03600
C1500       C  0.29368036  0.88517597  0.87436909    -0.10700
C1501       C  0.31448796  0.88660899  0.85878186    -0.00700
C1502       C  0.33912961  0.90849374  0.86040171    -0.05900
H1503       H  0.32573682  0.94432079  0.90667212     0.06600
H1504       H  0.31159312  0.87056337  0.84539104     0.10000
Br1505     Br  0.34644944  0.97452335  0.83859283    -0.05600
Br1506     Br  0.43955386  0.97758036  0.91942686    -0.02500
Br1507     Br  0.27071091  0.90719681  0.91261746     0.00300
Br1508     Br  0.36637125  0.90934006  0.83786454    -0.04000
C1509       C  0.16266721  0.72545866  0.53709765    -0.11400
C1510       C  0.17560883  0.75229104  0.54287743     0.04000
C1511       C  0.18479148  0.77011759  0.52035944    -0.12000
C1512       C  0.18477798  0.76058401  0.99434684     0.18900
C1513       C  0.16151963  0.73709673  0.99123177    -0.09000
C1514       C  0.15829414  0.71716695  0.50849486    -0.02000
H1515       H  0.19505212  0.79065487  0.52503383     0.05400
C1516       C  0.19709533  0.77759888  0.96959923     0.20900
H1517       H  0.14835096  0.69668309  0.50356699     0.10600
C1518       C  0.20780272  0.76920829  0.94843961    -0.15400
C1519       C  0.21952376  0.78433809  0.92441177     0.03600
C1520       C  0.22074150  0.80841423  0.92132449    -0.10700
C1521       C  0.21052608  0.81714581  0.94279544    -0.00700
C1522       C  0.19862456  0.80182753  0.96686847    -0.05900
H1523       H  0.20700480  0.75073911  0.95067123     0.06600
H1524       H  0.21139705  0.83564018  0.94054623     0.10000
Br1525     Br  0.14213268  0.72809180  0.95624854    -0.05600
Br1526     Br  0.18010466  0.76583754  0.58084038    -0.02500
Br1527     Br  0.23430357  0.77156320  0.89690314     0.00300
Br1528     Br  0.18387605  0.81413334  0.99486307    -0.04000
C1529       C  0.22368594  0.81405511  0.81598232    -0.11400
C1530       C  0.19793042  0.80503343  0.80726826     0.04000
C1531       C  0.18789134  0.78858745  0.78360688    -0.12000
C1532       C  0.20317835  0.78092404  0.76837328     0.18900
C1533       C  0.22919710  0.79082000  0.77627637    -0.09000
C1534       C  0.23926808  0.80729763  0.79987192    -0.02000
H1535       H  0.16795234  0.78133953  0.77738309     0.05400
C1536       C  0.19150934  0.76196913  0.74487662     0.20900
H1537       H  0.25897285  0.81381297  0.80651799     0.10600
C1538       C  0.19710405  0.77044587  0.71654238    -0.15400
C1539       C  0.18691329  0.75291321  0.69380302     0.03600
C1540       C  0.17065186  0.72618915  0.69925494    -0.10700
C1541       C  0.16485626  0.71790328  0.72782315    -0.00700
C1542       C  0.17520720  0.73548497  0.75048482    -0.05900
H1543       H  0.20950607  0.79086584  0.71211689     0.06600
H1544       H  0.15260567  0.69754440  0.73264125     0.10000
Br1545     Br  0.25111756  0.78089525  0.75666639    -0.05600
Br1546     Br  0.17578172  0.81466518  0.82693745    -0.02500
Br1547     Br  0.19514686  0.76718330  0.65607693     0.00300
Br1548     Br  0.16739227  0.72239693  0.78880775    -0.04000
C1549       C  0.44376284  0.25606412  0.63115868    -0.11400
C1550       C  0.42071930  0.25686443  0.63453674     0.04000
C1551       C  0.42141308  0.28068412  0.63457647    -0.12000
C1552       C  0.44491798  0.30390572  0.63149357     0.18900
C1553       C  0.46798483  0.30311474  0.62836468    -0.09000
C1554       C  0.46725748  0.27927810  0.62803265    -0.02000
H1555       H  0.40358346  0.28111912  0.63695601     0.05400
C1556       C  0.44499541  0.32875474  0.63119502     0.20900
H1557       H  0.48508049  0.27884219  0.62554923     0.10600
C1558       C  0.45295184  0.34448022  0.65557460    -0.15400
C1559       C  0.45361765  0.36830446  0.65585555     0.03600
C1560       C  0.44613288  0.37679278  0.63119841    -0.10700
C1561       C  0.43822076  0.36083342  0.60681542    -0.00700
C1562       C  0.43753223  0.33704362  0.60671450    -0.05900
H1563       H  0.45889238  0.33824331  0.67443822     0.06600
H1564       H  0.43232302  0.36675829  0.58768633     0.10000
Br1565     Br  0.50078545  0.33410900  0.62409228    -0.05600
Br1566     Br  0.38787504  0.22586415  0.63851377    -0.02500
Br1567     Br  0.46625660  0.38851825  0.69018549     0.00300
Br1568     Br  0.42675738  0.31667284  0.57245964    -0.04000
C1569       C  0.44011127  0.18197091  0.68520168    -0.11400
C1570       C  0.42115143  0.15608555  0.69081126     0.04000
C1571       C  0.42354424  0.14338764  0.71477012    -0.12000
C1572       C  0.44454312  0.15624418  0.73346900     0.18900
C1573       C  0.46288959  0.18240497  0.72854785    -0.09000
C1574       C  0.46049330  0.19510836  0.70463989    -0.02000
H1575       H  0.40936598  0.12330305  0.71846671     0.05400
C1576       C  0.44866877  0.14154244  0.75621274     0.20900
H1577       H  0.47528079  0.21487957  0.70044000     0.10600
C1578       C  0.45946600  0.12622149  0.74880413    -0.15400
C1579       C  0.46692884  0.11458635  0.76979743     0.03600
C1580       C  0.46362970  0.11831053  0.79901868    -0.10700
C1581       C  0.45177182  0.13284835  0.80627209    -0.00700
C1582       C  0.44409102  0.14422396  0.78511765    -0.05900
H1583       H  0.46307050  0.12416137  0.72650014     0.06600
H1584       H  0.44871436  0.13562169  0.82853164     0.10000
Br1585     Br  0.49263659  0.20090514  0.75265077    -0.05600
Br1586     Br  0.39165863  0.13730775  0.66649091    -0.02500
Br1587     Br  0.48369003  0.09605045  0.75687291     0.00300
Br1588     Br  0.42772936  0.16350337  0.79643958    -0.04000
C1589       C  0.47356732  0.12552202  0.96253265    -0.11400
C1590       C  0.47429379  0.14961826  0.95984361     0.04000
C1591       C  0.46942879  0.16074042  0.98362622    -0.12000
C1592       C  0.46384916  0.14774180  0.50947154     0.18900
C1593       C  0.46698907  0.12615960  0.51400710    -0.09000
C1594       C  0.46775705  0.11341565  0.98951384    -0.02000
H1595       H  0.46994139  0.17906317  0.98127093     0.05400
C1596       C  0.45937166  0.16114068  0.53346818     0.20900
H1597       H  0.46728247  0.09517961  0.99245740     0.10600
C1598       C  0.43509482  0.14933982  0.54671520    -0.15400
C1599       C  0.43021754  0.16129293  0.56966031     0.03600
C1600       C  0.44984473  0.18545679  0.57975468    -0.10700
C1601       C  0.47392763  0.19762639  0.56596508    -0.00700
C1602       C  0.47879612  0.18563906  0.54296007    -0.05900
H1603       H  0.41991641  0.13071296  0.53920007     0.06600
H1604       H  0.48921862  0.21609319  0.57369796     0.10000
Br1605     Br  0.46661655  0.11330584  0.55168751    -0.05600
Br1606     Br  0.48183287  0.16909234  0.92493934    -0.02500
Br1607     Br  0.39626874  0.14414206  0.58608151     0.00300
Br1608     Br  0.51364262  0.20207531  0.03071185    -0.04000
loop_ 
_geom_bond_atom_site_label_1 
_geom_bond_atom_site_label_2 
_geom_bond_distance 
_geom_bond_site_symmetry_2 
_ccdc_geom_bond_type 
C1            C2   1.409       .  A
C1            C6   1.408       .  A
C1          C745   1.489       .  S
C2            C3   1.404       .  A
C2            H7   1.083       .  S
C3            C4   1.399       .  A
C3          C796   1.477       .  S
C4            C5   1.400       .  A
C4            H8   1.083       .  S
C5            C6   1.404       .  A
C5          C765   1.478       .  S
C6            H9   1.086       .  S
C10          C11   1.405       .  A
C10          C15   1.407       .  A
C10         C696   1.484       .  S
C11          C12   1.404       .  A
C11          H16   1.084       .  S
C12          C13   1.402       .  A
C12         C716   1.483       .  S
C13          C14   1.402       .  A
C13          H17   1.084       .  S
C14          C15   1.407       .  A
C14         C725   1.482       .  S
C15          H18   1.084       .  S
C19          C20   1.406       .  A
C19          C24   1.406       .  A
C19         C636   1.478       .  S
C20          C21   1.402       .  A
C20          H25   1.084       .  S
C21          C22   1.399       .  A
C21         C645   1.481       .  S
C22          C23   1.401       .  A
C22          H26   1.085       .  S
C23          C24   1.404       .  A
C23         C676   1.480       .  S
C24          H27   1.082       .  S
C28          C29   1.402       .  A
C28          C33   1.403       .  A
C28         C576   1.473       .  S
C29          C30   1.402       .  A
C29          H34   1.085       .  S
C30          C31   1.401       .  A
C30         C616   1.479       .  S
C31          C32   1.403       .  A
C31          H35   1.084       .  S
C32          C33   1.404       .  A
C32         C585   1.481       .  S
C33          H36   1.083       .  S
C37          C38   1.405       .  A
C37          C42   1.404       .  A
C37         C516   1.478       .  S
C38          C39   1.403       .  A
C38          H43   1.083       .  S
C39          C40   1.402       .  A
C39         C536   1.477       .  S
C40          C41   1.400       .  A
C40          H44   1.084       .  S
C41          C42   1.400       .  A
C41         C545   1.473       .  S
C42          H45   1.085       .  S
C46          C47   1.405       .  A
C46          C51   1.407       .  A
C46         C445   1.479       .  S
C47          C48   1.400       .  A
C47          H52   1.084       .  S
C48          C49   1.399       .  A
C48         C496   1.475       .  S
C49          C50   1.400       .  A
C49          H53   1.084       .  S
C50          C51   1.406       .  A
C50         C476   1.481       .  S
C51          H54   1.084       .  S
O55          C71   1.275       .  A
O55         Zn61   2.017       .  S
C56         C665   1.478       .  S
C56          O72   1.272       .  A
C56          O69   1.275   1_655  A
O57          C70   1.274       .  A
O57         Cd64   2.073   1_655  S
O58          C76   1.276       .  A
O58         Cd67   2.078       .  S
O59          C73   1.277       .  A
O59         Cd63   2.082       .  S
O60          C71   1.275   1_455  A
O60         Cd63   2.082       .  S
Zn61         O72   2.007       .  S
Zn61         O74   2.009       .  S
Zn61         O66   1.941   1_655  S
O62          C73   1.274       .  A
O62         Cd67   2.067       .  S
Cd63         O65   2.075       .  S
Cd63         O66   2.003       .  S
Cd64         O68   2.064       .  S
Cd64         O77   2.075       .  S
Cd64         O66   2.001       .  S
O65          C75   1.276       .  A
O66         Cd67   1.998       .  S
Cd67         O69   2.072       .  S
O68          C75   1.274       .  A
C70         C385   1.474       .  S
C70          O74   1.273       .  A
C71         C656   1.488       .  S
C73         C456   1.483       .  S
C75         C436   1.479       .  S
C76         C405   1.486       .  S
C76          O77   1.275       .  A
O78          C94   1.273       .  A
O78         Zn84   2.014       .  S
C79         C736   1.487       .  S
C79          O95   1.274       .  A
C79          O92   1.275       .  A
O80          C93   1.277       .  A
O80         Cd87   2.082       .  S
O81          C99   1.275       .  A
O81         Cd90   2.068       .  S
O82          C96   1.272       .  A
O82         Cd86   2.063       .  S
O83          C94   1.276       .  A
O83         Cd86   2.065       .  S
Zn84         O95   2.027       .  S
Zn84         O97   2.019       .  S
Zn84         O89   1.938       .  S
O85          C96   1.276       .  A
O85         Cd90   2.074       .  S
Cd86         O88   2.077       .  S
Cd86         O89   1.995       .  S
Cd87         O91   2.084       .  S
Cd87        O100   2.065       .  S
Cd87         O89   2.003       .  S
O88          C98   1.275       .  A
O89         Cd90   1.999       .  S
Cd90         O92   2.074       .  S
O91          C98   1.276       .  A
C93         C365   1.489       .  S
C93          O97   1.274       .  A
C94         C705   1.489       .  S
C96         C505   1.488       .  S
C98         C416   1.484       .  S
C99         C425   1.478       .  S
C99         O100   1.275       .  A
O101        C117   1.275       .  A
O101       Zn107   2.014       .  S
C102        C785   1.489       .  S
C102        O118   1.273       .  A
C102        O115   1.277       .  A
O103        C116   1.274       .  A
O103       Cd110   2.076       .  S
O104        C122   1.276       .  A
O104       Cd113   2.078       .  S
O105        C119   1.276       .  A
O105       Cd109   2.071       .  S
O106        C117   1.274       .  A
O106       Cd109   2.072       .  S
Zn107       O118   2.009       .  S
Zn107       O120   2.017       .  S
Zn107       O112   1.938       .  S
O108        C119   1.277       .  A
O108       Cd113   2.092       .  S
Cd109       O111   2.081       .  S
Cd109       O112   1.997       .  S
Cd110       O114   2.064       .  S
Cd110       O123   2.053       .  S
Cd110       O112   1.997       .  S
O111        C121   1.277       .  A
O112       Cd113   2.008       .  S
Cd113       O115   2.085       .  S
O114        C121   1.273       .  A
C116        C305   1.476       .  S
C116        O120   1.273       .  A
C117        C776   1.486       .  S
C119        C685   1.492   1_545  S
C121        C345   1.483       .  S
C122        C325   1.472       .  S
C122        O123   1.273       .  A
O124        C140   1.272       .  A
O124       Zn130   2.009       .  S
C125        C605   1.487       .  S
C125        O141   1.275       .  A
C125        O138   1.275       .  A
O126        C139   1.274       .  A
O126       Cd133   2.073       .  S
O127        C145   1.277       .  A
O127       Cd136   2.085       .  S
O128        C142   1.274       .  A
O128       Cd132   2.060   1_545  S
O129        C140   1.275       .  A
O129       Cd132   2.071       .  S
Zn130       O141   2.016       .  S
Zn130       O143   2.008       .  S
Zn130       O135   1.939       .  S
O131        C142   1.276       .  A
O131       Cd136   2.081   1_545  S
Cd132       O134   2.069       .  S
Cd132       O135   1.998       .  S
Cd133       O137   2.067       .  S
Cd133       O146   2.067       .  S
Cd133       O135   2.000       .  S
O134        C144   1.274       .  A
O135       Cd136   2.004       .  S
Cd136       O138   2.075       .  S
O137        C144   1.274       .  A
C139        C296   1.479       .  S
C139        O143   1.274       .  A
C140        C596   1.482       .  S
C142        C625   1.485       .  S
C144        C336   1.475   1_565  S
C145        C356   1.481   1_565  S
C145        O146   1.275       .  A
C147        C316   1.489       .  S
C147        N148   1.361       .  A
C147        N152   1.358       .  A
N148        C149   1.359       .  A
C149        C396   1.493       .  S
C149        N150   1.360       .  A
N150        C151   1.358       .  A
C151        C265   1.484       .  S
C151        N152   1.357       .  A
C153        C285   1.485       .  S
C153        N154   1.358       .  A
C153        N158   1.357       .  A
N154        C155   1.357       .  A
C155        C245   1.481       .  S
C155        N156   1.361       .  A
N156        C157   1.360       .  A
C157        C376   1.481       .  S
C157        N158   1.359       .  A
O159        C175   1.274       .  A
O159       Zn165   2.009       .  S
C160        C485   1.488       .  S
C160        O176   1.275       .  A
C160        O173   1.275       .  A
O161        C174   1.274       .  A
O161       Cd168   2.079       .  S
O162        C180   1.278       .  A
O162       Cd171   2.086       .  S
O163        C177   1.278       .  A
O163       Cd167   2.086       .  S
O164        C175   1.276       .  A
O164       Cd167   2.083       .  S
Zn165       O176   2.014       .  S
Zn165       O178   2.018       .  S
Zn165       O170   1.940       .  S
O166        C177   1.276       .  A
O166       Cd171   2.081       .  S
Cd167       O169   2.079       .  S
Cd167       O170   2.004       .  S
Cd168       O172   2.065       .  S
Cd168       O181   2.062       .  S
Cd168       O170   2.000       .  S
O169        C179   1.276       .  A
O170       Cd171   2.003       .  S
Cd171       O173   2.075       .  S
O172        C179   1.275       .  A
C174        C256   1.482       .  S
C174        O178   1.274       .  A
C175        C465   1.486       .  S
C177        C756   1.492       .  S
C179        C225   1.486       .  S
C180        C216   1.495       .  S
C180        O181   1.272       .  A
O182        C198   1.272       .  A
O182       Zn188   2.020       .  S
C183        C556   1.483       .  S
C183        O199   1.275       .  A
C183        O196   1.275       .  A
O184        C197   1.275       .  A
O184       Cd191   2.078       .  S
O185        C203   1.275       .  A
O185       Cd194   2.081       .  S
O186        C200   1.274       .  A
O186       Cd190   2.076       .  S
O187        C198   1.276       .  A
O187       Cd190   2.075       .  S
Zn188       O199   2.027       .  S
Zn188       O201   2.021       .  S
Zn188       O193   1.947       .  S
O189        C200   1.276       .  A
O189       Cd194   2.070       .  S
Cd190       O192   2.076       .  S
Cd190       O193   2.004       .  S
Cd191       O195   2.074       .  S
Cd191       O204   2.081       .  S
Cd191       O193   2.004       .  S
O192        C202   1.276       .  A
O193       Cd194   2.001       .  S
Cd194       O196   2.069       .  S
O195        C202   1.275       .  A
C197        C276   1.484       .  S
C197        O201   1.276       .  A
C198        C525   1.495       .  S
C200        C565   1.493       .  S
C202        C205   1.477       .  S
C203        C236   1.487       .  S
C203        O204   1.276       .  A
C205        C206   1.410       .  A
C205        C210   1.403       .  A
C206        C207   1.399       .  A
C206       Br222   1.920       .  S
C207        C208   1.405       .  A
C207        H211   1.084       .  S
C208        C209   1.413       .  A
C208        C212   1.487       .  S
C209        C210   1.400       .  A
C209       Br221   1.920       .  S
C210        H213   1.084       .  S
C212        C214   1.401       .  A
C212        C218   1.409       .  A
C214        C215   1.399       .  A
C214        H219   1.084       .  S
C215        C216   1.422       .  A
C215       Br223   1.924       .  S
C216        C217   1.409       .  A
C217        C218   1.400       .  A
C217        H220   1.083       .  S
C218       Br224   1.920       .  S
C225        C226   1.416       .  A
C225        C230   1.408       .  A
C226        C227   1.401       .  A
C226       Br242   1.921       .  S
C227        C228   1.402       .  A
C227       H1035   1.085   1_554  S
C228        C229   1.406       .  A
C228       C1036   1.480   1_554  S
C229        C230   1.398       .  A
C229       Br241   1.919       .  S
C230        H233   1.085       .  S
H231       C1031   1.085       .  S
C232        C234   1.403       .  A
C232        C238   1.410       .  A
C232       C1032   1.488       .  S
C234        C235   1.402       .  A
C234        H239   1.085       .  S
C235        C236   1.415       .  A
C235       Br243   1.921       .  S
C236        C237   1.406       .  A
C237        C238   1.401       .  A
C237        H240   1.085       .  S
C238      Br1048   1.919       .  S
Br244      C1042   1.918   1_554  S
C245        C246   1.415       .  A
C245        C250   1.404       .  A
C246        C247   1.401       .  A
C246       Br262   1.921       .  S
C247        C248   1.401       .  A
C247        H251   1.084       .  S
C248        C249   1.407       .  A
C248        C252   1.478       .  S
C249        C250   1.398       .  A
C249       Br261   1.918       .  S
C250        H253   1.084       .  S
C252        C254   1.402       .  A
C252        C258   1.406       .  A
C254        C255   1.403       .  A
C254        H259   1.084       .  S
C255        C256   1.414       .  A
C255       Br263   1.920       .  S
C256        C257   1.405       .  A
C257        C258   1.397       .  A
C257        H260   1.085       .  S
C258       Br264   1.919       .  S
C265        C266   1.415       .  A
C265        C270   1.406       .  A
C266        C267   1.402       .  A
C266       Br282   1.920       .  S
C267        C268   1.402       .  A
C267        H271   1.084       .  S
C268        C269   1.407       .  A
C268        C272   1.479       .  S
C269        C270   1.398       .  A
C269       Br281   1.919       .  S
C270        H273   1.084       .  S
C272        C274   1.402       .  A
C272        C278   1.406       .  A
C274        C275   1.401       .  A
C274        H279   1.084       .  S
C275        C276   1.414       .  A
C275       Br283   1.920       .  S
C276        C277   1.407       .  A
C277        C278   1.398       .  A
C277        H280   1.084       .  S
C278       Br284   1.919       .  S
C285        C286   1.417       .  A
C285        C290   1.407       .  A
C286        C287   1.400       .  A
C286       Br302   1.921       .  S
C287        C288   1.401       .  A
C287        H291   1.084       .  S
C288        C289   1.407       .  A
C288        C292   1.479       .  S
C289        C290   1.396       .  A
C289       Br301   1.921       .  S
C290        H293   1.084       .  S
C292        C294   1.403       .  A
C292        C298   1.408       .  A
C294        C295   1.401       .  A
C294        H299   1.084       .  S
C295        C296   1.413       .  A
C295       Br303   1.920       .  S
C296        C297   1.405       .  A
C297        C298   1.396       .  A
C297        H300   1.084       .  S
C298       Br304   1.921       .  S
C305        C306   1.411       .  A
C305        C310   1.404       .  A
C306        C307   1.399       .  A
C306       Br322   1.920       .  S
C307        C308   1.401       .  A
C307        H311   1.084       .  S
C308        C309   1.408       .  A
C308        C312   1.477       .  S
C309        C310   1.400       .  A
C309       Br321   1.918       .  S
C310        H313   1.084       .  S
C312        C314   1.400       .  A
C312        C318   1.404       .  A
C314        C315   1.401       .  A
C314        H319   1.083       .  S
C315        C316   1.418       .  A
C315       Br323   1.921       .  S
C316        C317   1.407       .  A
C317        C318   1.398       .  A
C317        H320   1.080       .  S
C318       Br324   1.919       .  S
C325        C326   1.413       .  A
C325        C330   1.403       .  A
C326        C327   1.397       .  A
C326       Br342   1.922       .  S
C327        C328   1.399       .  A
C327        H331   1.084       .  S
C328       C1133   1.406       .  A
C328       C1136   1.470       .  S
C329       C1132   1.406   1_554  A
C329       C1134   1.398   1_554  A
C329       Br341   1.918       .  S
C330       C1133   1.397       .  A
C330        H333   1.084       .  S
C332        C334   1.401       .  A
C332        C338   1.406   1_545  A
C332       C1132   1.474   1_554  S
C334        C335   1.399       .  A
C334        H339   1.084       .  S
C335        C336   1.412       .  A
C335       Br343   1.921       .  S
C336        C337   1.404   1_545  A
C337        C338   1.398       .  A
C337        H340   1.084       .  S
C338      Br1148   1.919       .  S
Br344      C1142   1.918       .  S
C345        C346   1.416       .  A
C345        C350   1.406       .  A
C346        C347   1.400       .  A
C346       Br362   1.921       .  S
C347        C348   1.400       .  A
C347        H351   1.084       .  S
C348        C349   1.407       .  A
C348        C352   1.478       .  S
C349        C350   1.399       .  A
C349       Br361   1.919   1_545  S
C350        H353   1.084       .  S
C352        C354   1.403       .  A
C352        C358   1.406       .  A
C354        C355   1.403       .  A
C354        H359   1.085       .  S
C355        C356   1.413       .  A
C355       Br363   1.920   1_545  S
C356        C357   1.405       .  A
C357        C358   1.397       .  A
C357        H360   1.085       .  S
C358       Br364   1.919       .  S
C365        C366   1.417       .  A
C365        C370   1.408       .  A
C366        C367   1.399       .  A
C366       Br382   1.923       .  S
C367        C368   1.401       .  A
C367        H371   1.084       .  S
C368        C369   1.408       .  A
C368        C372   1.483       .  S
C369        C370   1.402       .  A
C369       Br381   1.919       .  S
C370        H373   1.084       .  S
C372        C374   1.402       .  A
C372        C378   1.409       .  A
C374        C375   1.399       .  A
C374        H379   1.085       .  S
C375        C376   1.413       .  A
C375       Br383   1.921       .  S
C376        C377   1.405       .  A
C377        C378   1.401       .  A
C377        H380   1.084       .  S
C378       Br384   1.919       .  S
C385        C386   1.409       .  A
C385        C390   1.404       .  A
C386        C387   1.398       .  A
C386       Br402   1.917       .  S
C387        C388   1.404       .  A
C387        H391   1.084       .  S
C388        C389   1.409       .  A
C388        C392   1.480       .  S
C389        C390   1.398       .  A
C389       Br401   1.919       .  S
C390        H393   1.084       .  S
C392        C394   1.400       .  A
C392        C398   1.405       .  A
C394        C395   1.399       .  A
C394        H399   1.085       .  S
C395        C396   1.420       .  A
C395       Br403   1.919       .  S
C396        C397   1.410       .  A
C397        C398   1.398       .  A
C397        H400   1.084       .  S
C398       Br404   1.919       .  S
C405        C406   1.416       .  A
C405        C410   1.407       .  A
C406        C407   1.401       .  A
C406       Br422   1.922       .  S
C407        C408   1.401       .  A
C407        H411   1.084       .  S
C408        C409   1.407       .  A
C408       C1216   1.481       .  S
C409        C410   1.401       .  A
C409      Br1225   1.918       .  S
C410        H413   1.084       .  S
C412        C414   1.401       .  A
C412        C418   1.408       .  A
C412       C1212   1.480   1_554  S
C414        C415   1.402       .  A
C414        H419   1.084       .  S
C415        C416   1.415       .  A
C415       Br423   1.921       .  S
C416        C417   1.405       .  A
C417        C418   1.401       .  A
C417        H420   1.084       .  S
C418      Br1228   1.919   1_554  S
Br421      C1213   1.918   1_554  S
Br424      C1222   1.919       .  S
C425        C426   1.413       .  A
C425        C430   1.406       .  A
C426        C427   1.398       .  A
C426       Br442   1.921       .  S
C427        C428   1.401       .  A
C427        H431   1.085       .  S
C428        C429   1.406       .  A
C428        C432   1.474       .  S
C429        C430   1.397       .  A
C429       Br441   1.919       .  S
C430        H433   1.085       .  S
C432        C434   1.400       .  A
C432        C438   1.406       .  A
C434        C435   1.398       .  A
C434        H439   1.084       .  S
C435        C436   1.414       .  A
C435       Br443   1.919   1_455  S
C436        C437   1.405       .  A
C437        C438   1.398       .  A
C437        H440   1.084       .  S
C438       Br444   1.919       .  S
C445        C446   1.410       .  A
C445        C450   1.404       .  A
C446        C447   1.399       .  A
C446       Br462   1.919       .  S
C447        C448   1.401       .  A
C447        H451   1.083       .  S
C448        C449   1.407       .  A
C448        C452   1.477       .  S
C449        C450   1.401       .  A
C449       Br461   1.918       .  S
C450        H453   1.083       .  S
C452        C454   1.400       .  A
C452        C458   1.406       .  A
C454        C455   1.399       .  A
C454        H459   1.084       .  S
C455        C456   1.415       .  A
C455       Br463   1.921       .  S
C456        C457   1.407       .  A
C457        C458   1.401       .  A
C457        H460   1.084       .  S
C458       Br464   1.918       .  S
C465        C466   1.416       .  A
C465        C470   1.408       .  A
C466       C1271   1.402       .  A
C466       Br482   1.920       .  S
C467        C468   1.402       .  A
C467       C1270   1.400       .  A
C467        H471   1.085       .  S
C468       C1273   1.406       .  A
C468        C472   1.481       .  S
C469        C470   1.397       .  A
C469       C1272   1.405       .  A
C469       Br481   1.920       .  S
C470        H473   1.084       .  S
C472        C474   1.402       .  A
C472        C478   1.410       .  A
C474        C475   1.400       .  A
C474        H479   1.083       .  S
C475        C476   1.413       .  A
C475       Br483   1.920       .  S
C476        C477   1.403       .  A
C477        C478   1.399       .  A
C477        H480   1.083       .  S
C478       Br484   1.920       .  S
C485        C486   1.418       .  A
C485        C490   1.410       .  A
C486        C487   1.399       .  A
C486       Br502   1.919       .  S
C487        C488   1.399       .  A
C487        H491   1.084       .  S
C488        C489   1.402       .  A
C488        C492   1.472       .  S
C489        C490   1.397       .  A
C489       Br501   1.918       .  S
C490        H493   1.083       .  S
C492        C494   1.399       .  A
C492        C498   1.407       .  A
C494        C495   1.394       .  A
C494        H499   1.084       .  S
C495        C496   1.410       .  A
C495       Br503   1.920       .  S
C496        C497   1.405       .  A
C497        C498   1.401       .  A
C497        H500   1.083       .  S
C498       Br504   1.917       .  S
C505        C506   1.420       .  A
C505        C510   1.408       .  A
C506        C507   1.400       .  A
C506       Br522   1.923       .  S
C507        C508   1.399       .  A
C507        H511   1.085       .  S
C508        C509   1.404       .  A
C508        C512   1.475   1_455  S
C509        C510   1.398       .  A
C509       Br521   1.918   1_455  S
C510        H513   1.084       .  S
C512        C514   1.400       .  A
C512        C518   1.408       .  A
C514        C515   1.397       .  A
C514        H519   1.084       .  S
C515        C516   1.411       .  A
C515       Br523   1.921       .  S
C516        C517   1.404       .  A
C517        C518   1.401       .  A
C517        H520   1.084       .  S
C518       Br524   1.918   1_655  S
C525        C526   1.422       .  A
C525        C530   1.410       .  A
C526        C527   1.402       .  A
C526       Br542   1.922       .  S
C527        C528   1.399       .  A
C527        H531   1.084       .  S
C528        C529   1.404       .  A
C528        C532   1.478       .  S
C529        C530   1.398       .  A
C529       Br541   1.919       .  S
C530        H533   1.083       .  S
C532        C534   1.401       .  A
C532        C538   1.409       .  A
C534        C535   1.397       .  A
C534        H539   1.083       .  S
C535        C536   1.410       .  A
C535       Br543   1.921       .  S
C536        C537   1.403       .  A
C537        C538   1.402       .  A
C537        H540   1.083       .  S
C538       Br544   1.917       .  S
C545        C546   1.407       .  A
C545        C550   1.402       .  A
C546        C547   1.401       .  A
C546       Br562   1.917       .  S
C547        C548   1.404       .  A
C547        H551   1.082       .  S
C548        C549   1.407       .  A
C548        C552   1.476       .  S
C549        C550   1.396       .  A
C549       Br561   1.919       .  S
C550        H553   1.082       .  S
C552        C558   1.405       .  A
C552       C1358   1.400   1_554  A
C554        C555   1.401       .  A
C554       C1356   1.401       .  A
C554        H559   1.084       .  S
C555        C556   1.416       .  A
C555       Br563   1.920       .  S
C556        C557   1.406       .  A
C557       C1362   1.397       .  A
C557        H560   1.084       .  S
C558       C1361   1.398   1_554  A
C558       Br564   1.919       .  S
C565        C566   1.421       .  A
C565        C570   1.411       .  A
C566        C567   1.401       .  A
C566       Br582   1.923       .  S
C567        C568   1.399       .  A
C567        H571   1.084       .  S
C568        C569   1.404       .  A
C568        C572   1.477       .  S
C569        C570   1.398       .  A
C569       Br581   1.919       .  S
C570        H573   1.083       .  S
C572        C574   1.402       .  A
C572        C578   1.409       .  A
C574        C575   1.399       .  A
C574        H579   1.082       .  S
C575        C576   1.407       .  A
C575       Br583   1.919       .  S
C576        C577   1.401       .  A
C577        C578   1.400       .  A
C577        H580   1.082       .  S
C578       Br584   1.918       .  S
C585        C586   1.413       .  A
C585        C590   1.406       .  A
C586        C587   1.399       .  A
C586       Br602   1.920       .  S
C587        C588   1.401       .  A
C587        H591   1.083       .  S
C588        C589   1.406       .  A
C588        C592   1.474       .  S
C589        C590   1.397       .  A
C589       Br601   1.919       .  S
C590        H593   1.083       .  S
C592        C598   1.408       .  A
C592       C1398   1.400       .  A
C594        C595   1.399       .  A
C594       C1396   1.399       .  A
C594        H599   1.084       .  S
C595        C596   1.417       .  A
C595       Br603   1.922       .  S
C596        C597   1.407       .  A
C597       C1402   1.397   1_554  A
C597        H600   1.084       .  S
C598       C1401   1.397       .  A
C598       Br604   1.920       .  S
C605        C606   1.417       .  A
C605        C610   1.409       .  A
C606        C607   1.400       .  A
C606       Br622   1.918       .  S
C607        C608   1.399       .  A
C607        H611   1.084       .  S
C608        C609   1.404       .  A
C608        C612   1.474       .  S
C609        C610   1.398       .  A
C609       Br621   1.919       .  S
C610        H613   1.083       .  S
C612        C614   1.400       .  A
C612        C618   1.406       .  A
C614        C615   1.395       .  A
C614        H619   1.083       .  S
C615        C616   1.411       .  A
C615       Br623   1.921       .  S
C616        C617   1.405       .  A
C617        C618   1.401       .  A
C617        H620   1.083       .  S
C618       Br624   1.917       .  S
C625        C626   1.416       .  A
C625        C630   1.409       .  A
C626        C627   1.399       .  A
C626       Br642   1.917       .  S
C627        C628   1.399       .  A
C627        H631   1.084       .  S
C628        C629   1.403       .  A
C628        C632   1.473       .  S
C629        C630   1.397       .  A
C629       Br641   1.918       .  S
C630        H633   1.084       .  S
C632        C634   1.402       .  A
C632        C638   1.405       .  A
C634        C635   1.400       .  A
C634        H639   1.082       .  S
C635        C636   1.410       .  A
C635       Br643   1.918       .  S
C636        C637   1.404       .  A
C637        C638   1.397       .  A
C637        H640   1.082       .  S
C638       Br644   1.918       .  S
C645        C646   1.411       .  A
C645        C650   1.405       .  A
C646        C647   1.403       .  A
C646       Br662   1.919       .  S
C647        C648   1.403       .  A
C647        H651   1.083       .  S
C648        C649   1.405       .  A
C648        C652   1.476       .  S
C649        C650   1.394       .  A
C649       Br661   1.919       .  S
C650        H653   1.084       .  S
C652        C654   1.400       .  A
C652        C658   1.404       .  A
C654        C655   1.401       .  A
C654        H659   1.084       .  S
C655        C656   1.417       .  A
C655       Br663   1.921   1_655  S
C656        C657   1.409       .  A
C657        C658   1.398       .  A
C657        H660   1.084       .  S
C658       Br664   1.919       .  S
C665        C666   1.415       .  A
C665        C670   1.405       .  A
C666        C667   1.400       .  A
C666       Br682   1.921       .  S
C667       C1472   1.400       .  A
C667        H671   1.084       .  S
C668        C669   1.405       .  A
C668       C1471   1.396       .  A
C668        C672   1.472   1_556  S
C669       C1474   1.398       .  A
C669       Br681   1.919   1_656  S
C670       C1473   1.396       .  A
C670        H673   1.084       .  S
C672        C674   1.403       .  A
C672        C678   1.404       .  A
C674        C675   1.402       .  A
C674        H679   1.083   1_554  S
C675        C676   1.411       .  A
C675       Br683   1.918       .  S
C676        C677   1.405       .  A
C677        C678   1.392       .  A
C677        H680   1.083       .  S
C678       Br684   1.920       .  S
C685        C686   1.417       .  A
C685        C690   1.409       .  A
C686        C687   1.405       .  A
C686       Br702   1.921       .  S
C687        C688   1.402       .  A
C687        H691   1.084       .  S
C688        C689   1.404       .  A
C688        C692   1.481       .  S
C689        C690   1.398       .  A
C689       Br701   1.919       .  S
C690        H693   1.084   1_565  S
C692        C694   1.403       .  A
C692        C698   1.408       .  A
C694        C695   1.402       .  A
C694        H699   1.083       .  S
C695        C696   1.411       .  A
C695       Br703   1.918       .  S
C696        C697   1.405       .  A
C697        C698   1.401       .  A
C697        H700   1.083       .  S
C698       Br704   1.918       .  S
C705        C706   1.421       .  A
C705        C710   1.409       .  A
C706        C707   1.399       .  A
C706       Br722   1.923       .  S
C707       C1512   1.398   1_554  A
C707        H711   1.084       .  S
C708        C709   1.407       .  A
C708       C1511   1.400       .  A
C708        C712   1.478       .  S
C709       C1514   1.400       .  A
C709       Br721   1.919       .  S
C710       C1513   1.395   1_554  A
C710        H713   1.083       .  S
C712        C714   1.400       .  A
C712        C718   1.407       .  A
C714        C715   1.398       .  A
C714        H719   1.083       .  S
C715        C716   1.413       .  A
C715       Br723   1.921       .  S
C716        C717   1.406       .  A
C717        C718   1.402       .  A
C717        H720   1.083       .  S
C718       Br724   1.918       .  S
C725        C726   1.412       .  A
C725        C730   1.403       .  A
C726        C727   1.402       .  A
C726       Br742   1.919       .  S
C727        C728   1.403       .  A
C727        H731   1.083       .  S
C728        C729   1.407       .  A
C728        C732   1.480       .  S
C729        C730   1.399       .  A
C729       Br741   1.918       .  S
C730        H733   1.083       .  S
C732        C734   1.401       .  A
C732        C738   1.407       .  A
C734        C735   1.401       .  A
C734        H739   1.084       .  S
C735        C736   1.416       .  A
C735       Br743   1.920       .  S
C736        C737   1.407       .  A
C737        C738   1.400       .  A
C737        H740   1.084       .  S
C738       Br744   1.918       .  S
C745        C746   1.413       .  A
C745        C750   1.407       .  A
C746        C747   1.401       .  A
C746       Br762   1.920       .  S
C747        C748   1.403       .  A
C747        H751   1.082       .  S
C748        C749   1.409       .  A
C748        C752   1.484       .  S
C749        C750   1.402       .  A
C749       Br761   1.918       .  S
C750        H753   1.082       .  S
C752        C754   1.401       .  A
C752        C758   1.407       .  A
C754        C755   1.402       .  A
C754        H759   1.084       .  S
C755        C756   1.418       .  A
C755       Br763   1.918       .  S
C756        C757   1.408       .  A
C757        C758   1.401       .  A
C757        H760   1.084       .  S
C758       Br764   1.918       .  S
C765        C766   1.411       .  A
C765        C770   1.402       .  A
C766        C767   1.400       .  A
C766       Br782   1.919       .  S
C767        C768   1.402       .  A
C767        H771   1.082       .  S
C768        C769   1.409       .  A
C768        C772   1.478       .  S
C769        C770   1.398       .  A
C769       Br781   1.920       .  S
C770        H773   1.082       .  S
C772        C774   1.400       .  A
C772        C778   1.406       .  A
C774        C775   1.399       .  A
C774        H779   1.086       .  S
C775        C776   1.417       .  A
C775       Br783   1.922       .  S
C776        C777   1.409       .  A
C777        C778   1.399       .  A
C777        H780   1.085       .  S
C778       Br784   1.919       .  S
C785        C786   1.419       .  A
C785        C790   1.409       .  A
C786        C787   1.399       .  A
C786       Br802   1.923       .  S
C787       C1592   1.399       .  A
C787        H791   1.084       .  S
C788        C789   1.407       .  A
C788       C1591   1.399   1_554  A
C788        C792   1.481       .  S
C789       C1594   1.400   1_554  A
C789       Br801   1.920       .  S
C790       C1593   1.400       .  A
C790        H793   1.083       .  S
C792        C794   1.403       .  A
C792        C798   1.410       .  A
C794        C795   1.398       .  A
C794        H799   1.083       .  S
C795        C796   1.409       .  A
C795       Br803   1.918       .  S
C796        C797   1.402       .  A
C797        C798   1.400       .  A
C797        H800   1.083       .  S
C798      Br1608   1.919       .  S
Br804      C1602   1.918       .  S
C805        C806   1.406       .  A
C805        C810   1.405       .  A
C805       C1549   1.478       .  S
C806        C807   1.405       .  A
C806        H811   1.084       .  S
C807        C808   1.401       .  A
C807       C1600   1.479       .  S
C808        C809   1.401       .  A
C808        H812   1.083       .  S
C809        C810   1.403       .  A
C809       C1569   1.479       .  S
C810        H813   1.086       .  S
C814        C815   1.405       .  A
C814        C819   1.409       .  A
C814       C1500   1.484       .  S
C815        C816   1.399       .  A
C815        H820   1.084       .  S
C816        C817   1.399       .  A
C816       C1520   1.473       .  S
C817        C818   1.400       .  A
C817        H821   1.084       .  S
C818        C819   1.406       .  A
C818       C1529   1.481       .  S
C819        H822   1.084       .  S
C823        C824   1.408       .  A
C823        C828   1.407       .  A
C823       C1440   1.484       .  S
C824        C825   1.402       .  A
C824        H829   1.084       .  S
C825        C826   1.399       .  A
C825       C1449   1.478       .  S
C826        C827   1.400       .  A
C826        H830   1.085       .  S
C827        C828   1.403       .  A
C827       C1480   1.480       .  S
C828        H831   1.082       .  S
C832        C833   1.403       .  A
C832        C837   1.407       .  A
C832       C1380   1.478       .  S
C833        C834   1.399       .  A
C833        H838   1.086       .  S
C834        C835   1.399       .  A
C834       C1420   1.469       .  S
C835        C836   1.398       .  A
C835        H839   1.084       .  S
C836        C837   1.403       .  A
C836       C1389   1.473       .  S
C837        H840   1.082       .  S
C841        C842   1.404       .  A
C841        C846   1.402       .  A
C841       C1320   1.472       .  S
C842        C843   1.404       .  A
C842        H847   1.083       .  S
C843        C844   1.403       .  A
C843       C1340   1.479       .  S
C844        C845   1.401       .  A
C844        H848   1.084       .  S
C845        C846   1.400       .  A
C845       C1349   1.473       .  S
C846        H849   1.085       .  S
C850        C851   1.405       .  A
C850        C855   1.405       .  A
C850       C1249   1.475       .  S
C851        C852   1.401       .  A
C851        H856   1.084       .  S
C852        C853   1.400       .  A
C852       C1300   1.477       .  S
C853        C854   1.402       .  A
C853        H857   1.084       .  S
C854        C855   1.405       .  A
C854       C1280   1.482       .  S
C855        H858   1.084       .  S
O859        C875   1.272       .  A
O859       Zn865   1.999       .  S
C860       C1469   1.487       .  S
C860        O876   1.269       .  A
C860        O873   1.275   1_655  A
O861        C874   1.274       .  A
O861       Cd868   2.070   1_655  S
O862        C880   1.275       .  A
O862       Cd871   2.075       .  S
O863        C877   1.277       .  A
O863       Cd867   2.077       .  S
O864        C875   1.277   1_455  A
O864       Cd867   2.095       .  S
Zn865       O876   1.994       .  S
Zn865       O878   1.999       .  S
Zn865       O870   1.932   1_655  S
O866        C877   1.274       .  A
O866       Cd871   2.060       .  S
Cd867       O869   2.081       .  S
Cd867       O870   2.006       .  S
Cd868       O872   2.063       .  S
Cd868       O881   2.079       .  S
Cd868       O870   1.999       .  S
O869        C879   1.277       .  A
O870       Cd871   1.999       .  S
Cd871       O873   2.075       .  S
O872        C879   1.274       .  A
C874       C1189   1.468       .  S
C874        O878   1.272       .  A
C875       C1460   1.490       .  S
C877       C1260   1.478       .  S
C879       C1240   1.482       .  S
C880       C1209   1.485       .  S
C880        O881   1.275       .  A
O882        C898   1.276       .  A
O882       Zn888   2.035       .  S
C883       C1540   1.488       .  S
C883        O899   1.275       .  A
C883        O896   1.275       .  A
O884        C897   1.275       .  A
O884       Cd891   2.063       .  S
O885        C903   1.276       .  A
O885       Cd894   2.078       .  S
O886        C900   1.274       .  A
O886       Cd890   2.065       .  S
O887        C898   1.275       .  A
O887       Cd890   2.075       .  S
Zn888       O899   2.034       .  S
Zn888       O901   2.024       .  S
Zn888       O893   1.949       .  S
O889        C900   1.277       .  A
O889       Cd894   2.079       .  S
Cd890       O892   2.083       .  S
Cd890       O893   1.999       .  S
Cd891       O895   2.075       .  S
Cd891       O904   2.067       .  S
Cd891       O893   2.001       .  S
O892        C902   1.276       .  A
O893       Cd894   2.005       .  S
Cd894       O896   2.071       .  S
O895        C902   1.275       .  A
C897       C1169   1.482       .  S
C897        O901   1.275       .  A
C898       C1509   1.484       .  S
C900       C1309   1.488       .  S
C902       C1220   1.486       .  S
C903       C1229   1.477       .  S
C903        O904   1.274       .  A
O905        C921   1.275       .  A
O905       Zn911   2.023       .  S
C906       C1589   1.493       .  S
C906        O922   1.272       .  A
C906        O919   1.277       .  A
O907        C920   1.274       .  A
O907       Cd914   2.064       .  S
O908        C926   1.275       .  A
O908       Cd917   2.076       .  S
O909        C923   1.274       .  A
O909       Cd913   2.062       .  S
O910        C921   1.273       .  A
O910       Cd913   2.068       .  S
Zn911       O922   2.007       .  S
Zn911       O924   2.009       .  S
Zn911       O916   1.938       .  S
O912        C923   1.276       .  A
O912       Cd917   2.079       .  S
Cd913       O915   2.078       .  S
Cd913       O916   1.995       .  S
Cd914       O918   2.056       .  S
Cd914       O927   2.060       .  S
Cd914       O916   1.994       .  S
O915        C925   1.276       .  A
O916       Cd917   2.003       .  S
Cd917       O919   2.082       .  S
O918        C925   1.272       .  A
C920       C1109   1.472       .  S
C920        O924   1.272       .  A
C921       C1580   1.482       .  S
C923       C1489   1.473   1_545  S
C925       C1149   1.480       .  S
C926       C1129   1.478       .  S
C926        O927   1.273       .  A
O928        C944   1.271       .  A
O928       Zn934   2.002       .  S
C929       C1409   1.484       .  S
C929        O945   1.273       .  A
C929        O942   1.274       .  A
O930        C943   1.273       .  A
O930       Cd937   2.064       .  S
O931        C949   1.276       .  A
O931       Cd940   2.082       .  S
O932        C946   1.275       .  A
O932       Cd936   2.058   1_545  S
O933        C944   1.274       .  A
O933       Cd936   2.070       .  S
Zn934       O945   1.998       .  S
Zn934       O947   2.012       .  S
Zn934       O939   1.932       .  S
O935        C946   1.274       .  A
O935       Cd940   2.074   1_545  S
Cd936       O938   2.061       .  S
Cd936       O939   1.994       .  S
Cd937       O941   2.061       .  S
Cd937       O950   2.053       .  S
Cd937       O939   1.992       .  S
O938        C948   1.273       .  A
O939       Cd940   2.004       .  S
Cd940       O942   2.071       .  S
O941        C948   1.274       .  A
C943       C1100   1.475       .  S
C943        O947   1.274       .  A
C944       C1400   1.473       .  S
C946       C1429   1.484       .  S
C948       C1140   1.473   1_565  S
C949       C1160   1.479   1_565  S
C949        O950   1.274       .  A
C951       C1120   1.484       .  S
C951        N952   1.360       .  A
C951        N956   1.355       .  A
N952        C953   1.358       .  A
C953       C1200   1.494       .  S
C953        N954   1.362       .  A
N954        C955   1.358       .  A
C955       C1069   1.478       .  S
C955        N956   1.355       .  A
C957       C1089   1.482       .  S
C957        N958   1.360       .  A
C957        N962   1.355       .  A
N958        C959   1.359       .  A
C959       C1049   1.483       .  S
C959        N960   1.360       .  A
N960        C961   1.358       .  A
C961       C1180   1.478       .  S
C961        N962   1.356       .  A
O963        C979   1.275       .  A
O963       Zn969   2.016       .  S
C964       C1289   1.488       .  S
C964        O980   1.275       .  A
C964        O977   1.274       .  A
O965        C978   1.275       .  A
O965       Cd972   2.073       .  S
O966        C984   1.277       .  A
O966       Cd975   2.080       .  S
O967        C981   1.277       .  A
O967       Cd971   2.081       .  S
O968        C979   1.276       .  A
O968       Cd971   2.084       .  S
Zn969       O980   2.019       .  S
Zn969       O982   2.029       .  S
Zn969       O974   1.948       .  S
O970        C981   1.274       .  A
O970       Cd975   2.071       .  S
Cd971       O973   2.090       .  S
Cd971       O974   2.007       .  S
Cd972       O976   2.075       .  S
Cd972       O985   2.070       .  S
Cd972       O974   2.001       .  S
O973        C983   1.277       .  A
O974       Cd975   2.004       .  S
Cd975       O977   2.075       .  S
O976        C983   1.276       .  A
C978       C1060   1.483       .  S
C978        O982   1.276       .  A
C979       C1269   1.485       .  S
C981       C1560   1.489       .  S
C983       C1029   1.492       .  S
C984       C1020   1.486       .  S
C984        O985   1.274       .  A
O986       C1002   1.272       .  A
O986       Zn992   2.018       .  S
C987       C1360   1.486       .  S
C987       O1003   1.275       .  A
C987       O1000   1.275       .  A
O988       C1001   1.275       .  A
O988       Cd995   2.075       .  S
O989       C1007   1.275       .  A
O989       Cd998   2.073       .  S
O990       C1004   1.274       .  A
O990       Cd994   2.072       .  S
O991       C1002   1.276       .  A
O991       Cd994   2.074       .  S
Zn992      O1003   2.025       .  S
Zn992      O1005   2.014       .  S
Zn992       O997   1.941       .  S
O993       C1004   1.275       .  A
O993       Cd998   2.063       .  S
Cd994       O996   2.076       .  S
Cd994       O997   2.000       .  S
Cd995       O999   2.069       .  S
Cd995      O1008   2.074       .  S
Cd995       O997   2.000       .  S
O996       C1006   1.276       .  A
O997       Cd998   1.997       .  S
Cd998      O1000   2.068       .  S
O999       C1006   1.274       .  A
C1001      C1080   1.482       .  S
C1001      O1005   1.275       .  A
C1002      C1329   1.494       .  S
C1004      C1369   1.484       .  S
C1006      C1009   1.481       .  S
C1007      C1040   1.480       .  S
C1007      O1008   1.275       .  A
C1009      C1010   1.415       .  A
C1009      C1014   1.405       .  A
C1010      C1011   1.399       .  A
C1010     Br1026   1.922       .  S
C1011      C1012   1.401       .  A
C1011      H1015   1.084       .  S
C1012      C1013   1.408       .  A
C1012      C1016   1.480       .  S
C1013      C1014   1.399       .  A
C1013     Br1025   1.919       .  S
C1014      H1017   1.084       .  S
C1016      C1018   1.400       .  A
C1016      C1022   1.407       .  A
C1018      C1019   1.398       .  A
C1018      H1023   1.084       .  S
C1019      C1020   1.416       .  A
C1019     Br1027   1.916       .  S
C1020      C1021   1.407       .  A
C1021      C1022   1.400       .  A
C1021      H1024   1.084       .  S
C1022     Br1028   1.918       .  S
C1029      C1030   1.416       .  A
C1029      C1034   1.409       .  A
C1030      C1031   1.402       .  A
C1030     Br1046   1.919       .  S
C1031      C1032   1.403       .  A
C1032      C1033   1.408       .  A
C1033      C1034   1.401       .  A
C1033     Br1045   1.919       .  S
C1034      H1037   1.085       .  S
C1036      C1038   1.402       .  A
C1036      C1042   1.408       .  A
C1038      C1039   1.399       .  A
C1038      H1043   1.085       .  S
C1039      C1040   1.414       .  A
C1039     Br1047   1.921       .  S
C1040      C1041   1.405       .  A
C1041      C1042   1.400       .  A
C1041      H1044   1.085       .  S
C1049      C1050   1.416       .  A
C1049      C1054   1.406       .  A
C1050      C1051   1.401       .  A
C1050     Br1066   1.921       .  S
C1051      C1052   1.401       .  A
C1051      H1055   1.084       .  S
C1052      C1053   1.405       .  A
C1052      C1056   1.477       .  S
C1053      C1054   1.397       .  A
C1053     Br1065   1.919       .  S
C1054      H1057   1.084       .  S
C1056      C1058   1.399       .  A
C1056      C1062   1.407       .  A
C1058      C1059   1.399       .  A
C1058      H1063   1.085       .  S
C1059      C1060   1.414       .  A
C1059     Br1067   1.914       .  S
C1060      C1061   1.406       .  A
C1061      C1062   1.400       .  A
C1061      H1064   1.084       .  S
C1062     Br1068   1.919       .  S
C1069      C1070   1.413       .  A
C1069      C1074   1.405       .  A
C1070      C1071   1.399       .  A
C1070     Br1086   1.921       .  S
C1071      C1072   1.401       .  A
C1071      H1075   1.084       .  S
C1072      C1073   1.409       .  A
C1072      C1076   1.478       .  S
C1073      C1074   1.399       .  A
C1073     Br1085   1.920       .  S
C1074      H1077   1.084       .  S
C1076      C1078   1.403       .  A
C1076      C1082   1.406       .  A
C1078      C1079   1.400       .  A
C1078      H1083   1.084       .  S
C1079      C1080   1.414       .  A
C1079     Br1087   1.920       .  S
C1080      C1081   1.407       .  A
C1081      C1082   1.397       .  A
C1081      H1084   1.084       .  S
C1082     Br1088   1.920       .  S
C1089      C1090   1.418       .  A
C1089      C1094   1.406       .  A
C1090      C1091   1.399       .  A
C1090     Br1106   1.922       .  S
C1091      C1092   1.399       .  A
C1091      H1095   1.084       .  S
C1092      C1093   1.405       .  A
C1092      C1096   1.473       .  S
C1093      C1094   1.396       .  A
C1093     Br1105   1.919       .  S
C1094      H1097   1.084       .  S
C1096      C1098   1.401       .  A
C1096      C1102   1.406       .  A
C1098      C1099   1.400       .  A
C1098      H1103   1.084       .  S
C1099      C1100   1.413       .  A
C1099     Br1107   1.920       .  S
C1100      C1101   1.404       .  A
C1101      C1102   1.395       .  A
C1101      H1104   1.084       .  S
C1102     Br1108   1.919       .  S
C1109      C1110   1.411       .  A
C1109      C1114   1.404       .  A
C1110      C1111   1.397       .  A
C1110     Br1126   1.921       .  S
C1111      C1112   1.401       .  A
C1111      H1115   1.084       .  S
C1112      C1113   1.406       .  A
C1112      C1116   1.472       .  S
C1113      C1114   1.397       .  A
C1113     Br1125   1.919       .  S
C1114      H1117   1.084       .  S
C1116      C1118   1.400       .  A
C1116      C1122   1.404       .  A
C1118      C1119   1.400       .  A
C1118      H1123   1.084       .  S
C1119      C1120   1.418       .  A
C1119     Br1127   1.922       .  S
C1120      C1121   1.406       .  A
C1121      C1122   1.394       .  A
C1121      H1124   1.080       .  S
C1122     Br1128   1.920       .  S
C1129      C1130   1.414       .  A
C1129      C1134   1.405       .  A
C1130      C1131   1.398       .  A
C1130     Br1146   1.922       .  S
C1131      C1132   1.400       .  A
C1131      H1135   1.084       .  S
C1133     Br1145   1.918       .  S
C1134      H1137   1.084       .  S
C1136      C1138   1.400       .  A
C1136      C1142   1.405   1_545  A
C1138      C1139   1.398       .  A
C1138      H1143   1.084       .  S
C1139      C1140   1.413       .  A
C1139     Br1147   1.921       .  S
C1140      C1141   1.404   1_545  A
C1141      C1142   1.396       .  A
C1141      H1144   1.084       .  S
C1149      C1150   1.415       .  A
C1149      C1154   1.406       .  A
C1150      C1151   1.398       .  A
C1150     Br1166   1.922       .  S
C1151      C1152   1.399       .  A
C1151      H1155   1.084       .  S
C1152      C1153   1.407       .  A
C1152      C1156   1.474       .  S
C1153      C1154   1.398       .  A
C1153     Br1165   1.919   1_545  S
C1154      H1157   1.084       .  S
C1156      C1158   1.402       .  A
C1156      C1162   1.404       .  A
C1158      C1159   1.402       .  A
C1158      H1163   1.085       .  S
C1159      C1160   1.414       .  A
C1159     Br1167   1.920   1_545  S
C1160      C1161   1.406       .  A
C1161      C1162   1.394       .  A
C1161      H1164   1.085       .  S
C1162     Br1168   1.919       .  S
C1169      C1170   1.414       .  A
C1169      C1174   1.407       .  A
C1170      C1171   1.398       .  A
C1170     Br1186   1.921       .  S
C1171      C1172   1.401       .  A
C1171      H1175   1.084       .  S
C1172      C1173   1.406       .  A
C1172      C1176   1.476       .  S
C1173      C1174   1.398       .  A
C1173     Br1185   1.920       .  S
C1174      H1177   1.084       .  S
C1176      C1178   1.400       .  A
C1176      C1182   1.407       .  A
C1178      C1179   1.396       .  A
C1178      H1183   1.085       .  S
C1179      C1180   1.414       .  A
C1179     Br1187   1.921       .  S
C1180      C1181   1.406       .  A
C1181      C1182   1.399       .  A
C1181      H1184   1.084       .  S
C1182     Br1188   1.919       .  S
C1189      C1190   1.407       .  A
C1189      C1194   1.402       .  A
C1190      C1191   1.398       .  A
C1190     Br1206   1.918       .  S
C1191      C1192   1.404       .  A
C1191      H1195   1.084       .  S
C1192      C1193   1.409       .  A
C1192      C1196   1.477       .  S
C1193      C1194   1.396       .  A
C1193     Br1205   1.920       .  S
C1194      H1197   1.084       .  S
C1196      C1198   1.398       .  A
C1196      C1202   1.405       .  A
C1198      C1199   1.398       .  A
C1198      H1203   1.085       .  S
C1199      C1200   1.422       .  A
C1199     Br1207   1.919       .  S
C1200      C1201   1.410       .  A
C1201      C1202   1.396       .  A
C1201      H1204   1.084       .  S
C1202     Br1208   1.920       .  S
C1209      C1210   1.415       .  A
C1209      C1214   1.407       .  A
C1210      C1211   1.401       .  A
C1210     Br1226   1.921       .  S
C1211      C1212   1.401       .  A
C1211      H1215   1.084       .  S
C1212      C1213   1.406       .  A
C1213      C1214   1.401       .  A
C1214      H1217   1.084       .  S
C1216      C1218   1.402       .  A
C1216      C1222   1.407       .  A
C1218      C1219   1.402       .  A
C1218      H1223   1.084       .  S
C1219      C1220   1.415       .  A
C1219     Br1227   1.920       .  S
C1220      C1221   1.407       .  A
C1221      C1222   1.401       .  A
C1221      H1224   1.084       .  S
C1229      C1230   1.412       .  A
C1229      C1234   1.404       .  A
C1230      C1231   1.401       .  A
C1230     Br1246   1.920       .  S
C1231      C1232   1.402       .  A
C1231      H1235   1.085       .  S
C1232      C1233   1.406       .  A
C1232      C1236   1.475       .  S
C1233      C1234   1.397       .  A
C1233     Br1245   1.919       .  S
C1234      H1237   1.085       .  S
C1236      C1238   1.400       .  A
C1236      C1242   1.405       .  A
C1238      C1239   1.399       .  A
C1238      H1243   1.084       .  S
C1239      C1240   1.415       .  A
C1239     Br1247   1.920   1_455  S
C1240      C1241   1.406       .  A
C1241      C1242   1.399       .  A
C1241      H1244   1.084       .  S
C1242     Br1248   1.918       .  S
C1249      C1250   1.407       .  A
C1249      C1254   1.404       .  A
C1250      C1251   1.397       .  A
C1250     Br1266   1.918       .  S
C1251      C1252   1.402       .  A
C1251      H1255   1.084       .  S
C1252      C1253   1.408       .  A
C1252      C1256   1.476       .  S
C1253      C1254   1.400       .  A
C1253     Br1265   1.918       .  S
C1254      H1257   1.083       .  S
C1256      C1258   1.400       .  A
C1256      C1262   1.408       .  A
C1258      C1259   1.398       .  A
C1258      H1263   1.084       .  S
C1259      C1260   1.414       .  A
C1259     Br1267   1.922       .  S
C1260      C1261   1.405       .  A
C1261      C1262   1.399       .  A
C1261      H1264   1.084       .  S
C1262     Br1268   1.919       .  S
C1269      C1270   1.415       .  A
C1269      C1274   1.408       .  A
C1270     Br1286   1.919       .  S
C1271      C1272   1.401       .  A
C1271      H1275   1.085   1_554  S
C1272      C1276   1.476   1_554  S
C1273      C1274   1.399       .  A
C1273     Br1285   1.919       .  S
C1274      H1277   1.085       .  S
C1276      C1278   1.403       .  A
C1276      C1282   1.406       .  A
C1278      C1279   1.402       .  A
C1278      H1283   1.083       .  S
C1279      C1280   1.411       .  A
C1279     Br1287   1.919       .  S
C1280      C1281   1.405       .  A
C1281      C1282   1.396       .  A
C1281      H1284   1.083       .  S
C1282     Br1288   1.919       .  S
C1289      C1290   1.417       .  A
C1289      C1294   1.409       .  A
C1290      C1291   1.401       .  A
C1290     Br1306   1.922       .  S
C1291      C1292   1.401       .  A
C1291      H1295   1.084       .  S
C1292      C1293   1.403       .  A
C1292      C1296   1.475       .  S
C1293      C1294   1.397       .  A
C1293     Br1305   1.918       .  S
C1294      H1297   1.083       .  S
C1296      C1298   1.400       .  A
C1296      C1302   1.407       .  A
C1298      C1299   1.395       .  A
C1298      H1303   1.084       .  S
C1299      C1300   1.410       .  A
C1299     Br1307   1.921       .  S
C1300      C1301   1.405       .  A
C1301      C1302   1.402       .  A
C1301      H1304   1.083       .  S
C1302     Br1308   1.916       .  S
C1309      C1310   1.419       .  A
C1309      C1314   1.409       .  A
C1310      C1311   1.398       .  A
C1310     Br1326   1.923       .  S
C1311      C1312   1.399       .  A
C1311      H1315   1.085       .  S
C1312      C1313   1.405       .  A
C1312      C1316   1.476   1_455  S
C1313      C1314   1.399       .  A
C1313     Br1325   1.918   1_455  S
C1314      H1317   1.084       .  S
C1316      C1318   1.402       .  A
C1316      C1322   1.408       .  A
C1318      C1319   1.398       .  A
C1318      H1323   1.083       .  S
C1319      C1320   1.407       .  A
C1319     Br1327   1.919       .  S
C1320      C1321   1.402       .  A
C1321      C1322   1.400       .  A
C1321      H1324   1.083       .  S
C1322     Br1328   1.918   1_655  S
C1329      C1330   1.422       .  A
C1329      C1334   1.410       .  A
C1330      C1331   1.401       .  A
C1330     Br1346   1.923       .  S
C1331      C1332   1.400       .  A
C1331      H1335   1.084       .  S
C1332      C1333   1.405       .  A
C1332      C1336   1.480       .  S
C1333      C1334   1.397       .  A
C1333     Br1345   1.919       .  S
C1334      H1337   1.083       .  S
C1336      C1338   1.402       .  A
C1336      C1342   1.409       .  A
C1338      C1339   1.397       .  A
C1338      H1343   1.083       .  S
C1339      C1340   1.411       .  A
C1339     Br1347   1.921       .  S
C1340      C1341   1.403       .  A
C1341      C1342   1.401       .  A
C1341      H1344   1.083       .  S
C1342     Br1348   1.918       .  S
C1349      C1350   1.408       .  A
C1349      C1354   1.401       .  A
C1350      C1351   1.402       .  A
C1350     Br1366   1.917       .  S
C1351      C1352   1.404       .  A
C1351      H1355   1.082       .  S
C1352      C1353   1.407       .  A
C1352      C1356   1.475       .  S
C1353      C1354   1.395       .  A
C1353     Br1365   1.919       .  S
C1354      H1357   1.083       .  S
C1356      C1362   1.406       .  A
C1358      C1359   1.400       .  A
C1358      H1363   1.084       .  S
C1359      C1360   1.416       .  A
C1359     Br1367   1.921       .  S
C1360      C1361   1.408       .  A
C1361      H1364   1.083       .  S
C1362     Br1368   1.919       .  S
C1369      C1370   1.417       .  A
C1369      C1374   1.408       .  A
C1370      C1371   1.399       .  A
C1370     Br1386   1.921       .  S
C1371      C1372   1.399       .  A
C1371      H1375   1.084       .  S
C1372      C1373   1.403       .  A
C1372      C1376   1.472       .  S
C1373      C1374   1.396       .  A
C1373     Br1385   1.919       .  S
C1374      H1377   1.084       .  S
C1376      C1378   1.400       .  A
C1376      C1382   1.405       .  A
C1378      C1379   1.398       .  A
C1378      H1383   1.082       .  S
C1379      C1380   1.411       .  A
C1379     Br1387   1.917       .  S
C1380      C1381   1.405       .  A
C1381      C1382   1.398       .  A
C1381      H1384   1.082       .  S
C1382     Br1388   1.918       .  S
C1389      C1390   1.408       .  A
C1389      C1394   1.403       .  A
C1390      C1391   1.398       .  A
C1390     Br1406   1.917       .  S
C1391      C1392   1.401       .  A
C1391      H1395   1.083       .  S
C1392      C1393   1.406       .  A
C1392      C1396   1.473   1_556  S
C1393      C1394   1.398       .  A
C1393     Br1405   1.918       .  S
C1394      H1397   1.083       .  S
C1396      C1402   1.405   1_554  A
C1398      C1399   1.399       .  A
C1398      H1403   1.084       .  S
C1399      C1400   1.412       .  A
C1399     Br1407   1.921       .  S
C1400      C1401   1.403       .  A
C1401      H1404   1.084       .  S
C1402     Br1408   1.919       .  S
C1409      C1410   1.417       .  A
C1409      C1414   1.409       .  A
C1410      C1411   1.398       .  A
C1410     Br1426   1.920       .  S
C1411      C1412   1.399       .  A
C1411      H1415   1.084       .  S
C1412      C1413   1.403       .  A
C1412      C1416   1.470       .  S
C1413      C1414   1.395       .  A
C1413     Br1425   1.920       .  S
C1414      H1417   1.083       .  S
C1416      C1418   1.400       .  A
C1416      C1422   1.407       .  A
C1418      C1419   1.392       .  A
C1418      H1423   1.084       .  S
C1419      C1420   1.407       .  A
C1419     Br1427   1.920       .  S
C1420      C1421   1.404       .  A
C1421      C1422   1.401       .  A
C1421      H1424   1.083       .  S
C1422     Br1428   1.918       .  S
C1429      C1430   1.416       .  A
C1429      C1434   1.408       .  A
C1430      C1431   1.399       .  A
C1430     Br1446   1.919       .  S
C1431      C1432   1.400       .  A
C1431      H1435   1.084       .  S
C1432      C1433   1.404       .  A
C1432      C1436   1.474       .  S
C1433      C1434   1.396       .  A
C1433     Br1445   1.918       .  S
C1434      H1437   1.084       .  S
C1436      C1438   1.402       .  A
C1436      C1442   1.405       .  A
C1438      C1439   1.399       .  A
C1438      H1443   1.083       .  S
C1439      C1440   1.414       .  A
C1439     Br1447   1.920       .  S
C1440      C1441   1.407       .  A
C1441      C1442   1.397       .  A
C1441      H1444   1.082       .  S
C1442     Br1448   1.919       .  S
C1449      C1450   1.410       .  A
C1449      C1454   1.402       .  A
C1450      C1451   1.404       .  A
C1450     Br1466   1.918       .  S
C1451      C1452   1.404       .  A
C1451      H1455   1.083       .  S
C1452      C1453   1.407       .  A
C1452      C1456   1.477       .  S
C1453      C1454   1.393       .  A
C1453     Br1465   1.919       .  S
C1454      H1457   1.084       .  S
C1456      C1458   1.402       .  A
C1456      C1462   1.404       .  A
C1458      C1459   1.403       .  A
C1458      H1463   1.084       .  S
C1459      C1460   1.416       .  A
C1459     Br1467   1.920   1_655  S
C1460      C1461   1.410       .  A
C1461      C1462   1.396       .  A
C1461      H1464   1.084       .  S
C1462     Br1468   1.920       .  S
C1469      C1470   1.422       .  A
C1469      C1474   1.409       .  A
C1470      C1471   1.397       .  A
C1470     Br1486   1.924       .  S
C1471      H1475   1.084       .  S
C1472      C1473   1.406       .  A
C1472      C1476   1.473       .  S
C1473     Br1485   1.919       .  S
C1474      H1477   1.083   1_655  S
C1476      C1478   1.400       .  A
C1476      C1482   1.406       .  A
C1478      C1479   1.397       .  A
C1478      H1483   1.083       .  S
C1479      C1480   1.412       .  A
C1479     Br1487   1.920       .  S
C1480      C1481   1.405       .  A
C1481      C1482   1.399       .  A
C1481      H1484   1.083       .  S
C1482     Br1488   1.918       .  S
C1489      C1490   1.410       .  A
C1489      C1494   1.403       .  A
C1490      C1491   1.402       .  A
C1490     Br1506   1.919       .  S
C1491      C1492   1.403       .  A
C1491      H1495   1.084       .  S
C1492      C1493   1.406       .  A
C1492      C1496   1.476       .  S
C1493      C1494   1.396       .  A
C1493     Br1505   1.919       .  S
C1494      H1497   1.084   1_565  S
C1496      C1498   1.401       .  A
C1496      C1502   1.406       .  A
C1498      C1499   1.399       .  A
C1498      H1503   1.084       .  S
C1499      C1500   1.413       .  A
C1499     Br1507   1.920       .  S
C1500      C1501   1.406       .  A
C1501      C1502   1.399       .  A
C1501      H1504   1.083       .  S
C1502     Br1508   1.918       .  S
C1509      C1510   1.413       .  A
C1509      C1514   1.406       .  A
C1510      C1511   1.401       .  A
C1510     Br1526   1.915       .  S
C1511      H1515   1.084       .  S
C1512      C1513   1.403       .  A
C1512      C1516   1.473       .  S
C1513     Br1525   1.920       .  S
C1514      H1517   1.084       .  S
C1516      C1518   1.400       .  A
C1516      C1522   1.408       .  A
C1518      C1519   1.393       .  A
C1518      H1523   1.084       .  S
C1519      C1520   1.409       .  A
C1519     Br1527   1.921       .  S
C1520      C1521   1.404       .  A
C1521      C1522   1.401       .  A
C1521      H1524   1.083       .  S
C1522     Br1528   1.918       .  S
C1529      C1530   1.411       .  A
C1529      C1534   1.404       .  A
C1530      C1531   1.400       .  A
C1530     Br1546   1.920       .  S
C1531      C1532   1.402       .  A
C1531      H1535   1.083       .  S
C1532      C1533   1.407       .  A
C1532      C1536   1.479       .  S
C1533      C1534   1.399       .  A
C1533     Br1545   1.918       .  S
C1534      H1537   1.083       .  S
C1536      C1538   1.399       .  A
C1536      C1542   1.406       .  A
C1538      C1539   1.400       .  A
C1538      H1543   1.084       .  S
C1539      C1540   1.416       .  A
C1539     Br1547   1.915       .  S
C1540      C1541   1.408       .  A
C1541      C1542   1.400       .  A
C1541      H1544   1.084       .  S
C1542     Br1548   1.919       .  S
C1549      C1550   1.409       .  A
C1549      C1554   1.403       .  A
C1550      C1551   1.401       .  A
C1550     Br1566   1.918       .  S
C1551      C1552   1.403       .  A
C1551      H1555   1.083       .  S
C1552      C1553   1.408       .  A
C1552      C1556   1.480       .  S
C1553      C1554   1.401       .  A
C1553     Br1565   1.918       .  S
C1554      H1557   1.083       .  S
C1556      C1558   1.401       .  A
C1556      C1562   1.405       .  A
C1558      C1559   1.402       .  A
C1558      H1563   1.084       .  S
C1559      C1560   1.419       .  A
C1559     Br1567   1.922       .  S
C1560      C1561   1.408       .  A
C1561      C1562   1.399       .  A
C1561      H1564   1.084       .  S
C1562     Br1568   1.918       .  S
C1569      C1570   1.411       .  A
C1569      C1574   1.403       .  A
C1570      C1571   1.400       .  A
C1570     Br1586   1.918       .  S
C1571      C1572   1.401       .  A
C1571      H1575   1.082       .  S
C1572      C1573   1.408       .  A
C1572      C1576   1.476       .  S
C1573      C1574   1.398       .  A
C1573     Br1585   1.919       .  S
C1574      H1577   1.082       .  S
C1576      C1578   1.399       .  A
C1576      C1582   1.405       .  A
C1578      C1579   1.398       .  A
C1578      H1583   1.085       .  S
C1579      C1580   1.415       .  A
C1579     Br1587   1.922       .  S
C1580      C1581   1.407       .  A
C1581      C1582   1.400       .  A
C1581      H1584   1.085       .  S
C1582     Br1588   1.918       .  S
C1589      C1590   1.422       .  A
C1589      C1594   1.410       .  A
C1590      C1591   1.399       .  A
C1590     Br1606   1.924       .  S
C1591      H1595   1.084       .  S
C1592      C1593   1.406       .  A
C1592      C1596   1.478       .  S
C1593     Br1605   1.919       .  S
C1594      H1597   1.083       .  S
C1596      C1598   1.401       .  A
C1596      C1602   1.409       .  A
C1598      C1599   1.398       .  A
C1598      H1603   1.083       .  S
C1599      C1600   1.410       .  A
C1599     Br1607   1.917       .  S
C1600      C1601   1.403       .  A
C1601      C1602   1.401       .  A
C1601      H1604   1.083       .  S
