geometry optimzed in LAMMPS
_audit_creation_date              2020-11-30 
_audit_creation_method            'lammps2cif' 
_symmetry_space_group_name_H-M    'P1' 
_symmetry_Int_Tables_number       1 
_symmetry_cell_setting            triclinic 
loop_ 
_symmetry_equiv_pos_as_xyz 
  x,y,z 
_cell_length_a                    25.50860269 
_cell_length_b                    49.894986556726444 
_cell_length_c                    32.04164246645334 
_cell_angle_alpha                 89.54161614684658 
_cell_angle_beta                  89.57410041670724 
_cell_angle_gamma                 89.87255245837673 
loop_ 
_atom_site_label 
_atom_site_type_symbol 
_atom_site_fract_x 
_atom_site_fract_y 
_atom_site_fract_z 
_atom_site_charge 
O1          O  0.39524594  0.20039685  0.07644204    -0.75400
O2          O  0.45226320  0.22157912  0.11947298    -0.54300
C3          C  0.41148625  0.20725402  0.11268895     0.78400
O4          O  0.59916385  0.18056818  0.42735483    -0.60000
O5          O  0.55442240  0.20476974  0.37849410    -0.53000
C6          C  0.58725666  0.18675386  0.38955586     0.70400
O7          O  0.60539290  0.18781248  0.06804774    -0.74500
O8          O  0.56470096  0.21531940  0.11482834    -0.55100
C9          C  0.59668104  0.19653375  0.10509773     0.76400
O10         O  0.38763090  0.19285511  0.43561675    -0.59700
O11         O  0.43967740  0.20994329  0.38358294    -0.52800
C12         C  0.40132492  0.19611873  0.39744671     0.73000
Zr13       Zr  0.42125284  0.20618947  0.00388994     2.54700
O14         O  0.41089113  0.15786499  0.01112834    -0.80200
O15         O  0.32552432  0.20893197  0.50712987    -0.93600
Zr16       Zr  0.57660472  0.19683511  0.99723500     2.64700
O17         O  0.56091597  0.14869921  0.00159834    -0.98600
O18         O  0.66812460  0.18531314  0.49662571    -0.80700
O19         O  0.50135531  0.20194168  0.04072153    -0.84000
O20         O  0.49541502  0.19805279  0.45949906    -2.18700
O21         O  0.41855866  0.29632000  0.41643070    -0.67400
O22         O  0.45200405  0.26482333  0.37237973    -0.52000
C23         C  0.42611442  0.28613037  0.38014837     0.71400
O24         O  0.62017400  0.29344518  0.05117857    -0.60300
O25         O  0.57650065  0.27201050  0.10421053    -0.52300
C26         C  0.61015843  0.28871895  0.08983749     0.73200
O27         O  0.61831621  0.27994856  0.40930145    -0.71700
O28         O  0.55883863  0.25966323  0.36735561    -0.50400
C29         C  0.59967291  0.27384020  0.37332932     0.74500
O30         O  0.41729930  0.30077687  0.05984240    -0.67000
O31         O  0.46403912  0.27800165  0.10931491    -0.54200
C32         C  0.43034224  0.29549866  0.09765861     0.72900
Zr33       Zr  0.44015105  0.28522063  0.48836915     2.77500
O34         O  0.45448727  0.33366779  0.98897136    -0.97800
O35         O  0.34513813  0.29025668  0.48868278    -0.78600
Zr36       Zr  0.59488519  0.27466193  0.48316350     2.70100
O37         O  0.61026752  0.32231346  0.47162535    -0.79900
O38         O  0.68903023  0.26899559  0.98684277    -0.98900
Zr39       Zr  0.51211029  0.24445316  0.07224708     2.21500
Zr40       Zr  0.50353650  0.23659822  0.41606788     2.11100
O41         O  0.51564619  0.27915466  0.44644483    -2.47600
O42         O  0.51949800  0.28279571  0.02766342    -0.79700
O43         O  0.42615547  0.24351537  0.45590043    -0.71800
O44         O  0.58924347  0.23823412  0.03106259    -2.32800
O45         O  0.43132584  0.24802957  0.03636216    -2.29000
O46         O  0.58488612  0.23281978  0.45050332    -0.73600
H47         H  0.49101453  0.18197012  0.44340004     0.78400
H48         H  0.62035964  0.23768447  0.04799122     0.79500
H49         H  0.51865324  0.29331038  0.42585721     0.81700
H50         H  0.40227655  0.25070525  0.05532897     0.79300
H51         H  0.68674172  0.20539172  0.00214860     0.42300
H52         H  0.70063029  0.26592642  0.45596338     0.41300
H53         H  0.58192428  0.33205493  0.99334931     0.41000
H54         H  0.48548444  0.33627137  0.47035970     0.38900
H55         H  0.33312889  0.28058803  0.51410467     0.42100
H56         H  0.31459038  0.21452739  0.97923815     0.36800
H57         H  0.44210683  0.15192459  0.02690583     0.43000
H58         H  0.54544806  0.14253202  0.47599207     0.39400
H59         H  0.42486496  0.34015055  0.46535142     0.44300
H60         H  0.32160968  0.23014696  0.02092414     0.43000
H61         H  0.54534806  0.14572777  0.02964014     0.43200
H62         H  0.70420509  0.28357065  0.49601741     0.43500
O63         O  0.39827906  0.44931223  0.06685890    -0.75400
O64         O  0.44795328  0.46982072  0.11620051    -0.54300
C65         C  0.40998658  0.45452451  0.10504025     0.78400
O66         O  0.61864401  0.44919846  0.42684482    -0.60000
O67         O  0.57255448  0.47202988  0.37692324    -0.53000
C68         C  0.60780417  0.45519767  0.38875498     0.70400
O69         O  0.61885619  0.44878724  0.06615437    -0.74500
O70         O  0.56887112  0.46950205  0.11568162    -0.55100
C71         C  0.60702429  0.45400508  0.10441176     0.76400
O72         O  0.40497420  0.45220524  0.42341078    -0.59700
O73         O  0.45246556  0.47453282  0.37353391    -0.52800
C74         C  0.41608005  0.45818480  0.38512561     0.73000
Zr75       Zr  0.43048177  0.46069845  0.99647793     2.54700
O76         O  0.43470565  0.41196337  0.99481278    -0.80200
O77         O  0.33810682  0.45712750  0.49182712    -0.93600
Zr78       Zr  0.58541832  0.45960976  0.99649856     2.64700
O79         O  0.57787617  0.41097410  0.99989667    -0.98600
O80         O  0.68322254  0.45954904  0.49639673    -0.80700
O81         O  0.50754650  0.45873053  0.03783310    -0.84000
O82         O  0.51161039  0.46018431  0.45432817    -2.18700
O83         O  0.39951428  0.04855853  0.42305176    -0.67400
O84         O  0.45407927  0.03001581  0.37455307    -0.52000
C85         C  0.41351344  0.04401706  0.38475775     0.71400
O86         O  0.61702749  0.04972829  0.06596612    -0.60300
O87         O  0.56777549  0.02844685  0.11569446    -0.52300
C88         C  0.60578340  0.04398842  0.10431892     0.73200
O89         O  0.62660308  0.04555661  0.42794848    -0.71700
O90         O  0.57856988  0.02618632  0.37698571    -0.50400
C91         C  0.61842535  0.03970705  0.38943047     0.74500
O92         O  0.40047487  0.04805365  0.06485497    -0.67000
O93         O  0.44506099  0.02506474  0.11554052    -0.54200
C94         C  0.40922826  0.04141239  0.10325319     0.72900
Zr95       Zr  0.43310078  0.04036239  0.49467833     2.77500
O96         O  0.43754682  0.08745317  0.98898715    -0.97800
O97         O  0.33453620  0.04158992  0.99655325    -0.78600
Zr98       Zr  0.58724205  0.03984884  0.49749006     2.70100
O99         O  0.57396708  0.08802899  0.49358574    -0.79900
O100        O  0.67479036  0.05347432  0.00440752    -0.98900
Zr101      Zr  0.50810298  0.49896433  0.07779154     2.21500
Zr102      Zr  0.51290189  0.50120143  0.41469012     2.11100
O103        O  0.51162679  0.04153375  0.45444121    -2.47600
O104        O  0.50573364  0.03998257  0.03662129    -0.79700
O105        O  0.43362146  0.50057216  0.45448076    -0.71800
O106        O  0.58646202  0.49911564  0.03695101    -2.32800
O107        O  0.43073362  0.50030287  0.03579744    -2.29000
O108        O  0.58941118  0.50046762  0.45728889    -0.73600
H109        H  0.51186264  0.44483627  0.43615510     0.78400
H110        H  0.61720051  0.49895494  0.05429684     0.79500
H111        H  0.51248082  0.05703435  0.43624068     0.81700
H112        H  0.39941182  0.49999131  0.05287037     0.79300
H113        H  0.69256292  0.47384589  0.00683338     0.42300
H114        H  0.69807487  0.03500421  0.48447689     0.41300
H115        H  0.57455800  0.09312739  0.96221021     0.41000
H116        H  0.43354594  0.09427952  0.46407400     0.38900
H117        H  0.32492751  0.02682662  0.50058789     0.42100
H118        H  0.32484719  0.47494015  0.01743835     0.36800
H119        H  0.39774850  0.40622418  0.99218878     0.43000
H120        H  0.61023518  0.40521678  0.47916834     0.39400
H121        H  0.41552510  0.09578816  0.51082626     0.44300
H122        H  0.32422415  0.44400073  0.00905440     0.43000
H123        H  0.61225390  0.40472187  0.01040821     0.43200
H124        H  0.68728874  0.06545311  0.49377353     0.43500
O125        O  0.91441567  0.30918267  0.07227709    -0.75400
O126        O  0.95440903  0.28275346  0.12097813    -0.54300
C127        C  0.92540061  0.30278823  0.11026122     0.78400
O128        O  0.90163793  0.19450072  0.43272785    -0.60000
O129        O  0.94749547  0.21729322  0.38233758    -0.53000
C130        C  0.91412935  0.19931463  0.39425859     0.70400
O131        O  0.90093006  0.19803088  0.07411266    -0.74500
O132        O  0.94740329  0.22140768  0.12254342    -0.55100
C133        C  0.91410780  0.20334631  0.11196263     0.76400
O134        O  0.91809524  0.30775382  0.43211910    -0.59700
O135        O  0.95377427  0.28150995  0.38114573    -0.52800
C136        C  0.92651597  0.30166306  0.39377637     0.73000
Zr137      Zr  0.93500892  0.29256359  0.00227188     2.54700
O138        O  0.83973081  0.29578229  0.00212997    -0.80200
O139        O  0.92373577  0.33866421  0.49622084    -0.93600
Zr140      Zr  0.92070439  0.21383102  0.00302964     2.64700
O141        O  0.82793689  0.22548645  0.00414977    -0.98600
O142        O  0.90762018  0.16326301  0.50414315    -0.80700
O143        O  0.92669737  0.25328071  0.04406825    -0.84000
O144        O  0.92550079  0.25082504  0.46035559    -2.18700
O145        O  0.10784244  0.30125454  0.42978917    -0.67400
O146        O  0.06155196  0.27872803  0.38033877    -0.52000
C147        C  0.09537258  0.29630401  0.39173796     0.71400
O148        O  0.09579502  0.19137718  0.07325427    -0.60300
O149        O  0.05961165  0.21890079  0.12225076    -0.52300
C150        C  0.08668444  0.19826089  0.11139068     0.73200
O151        O  0.09621307  0.19084272  0.43074942    -0.71700
O152        O  0.05690546  0.21615592  0.38025256    -0.50400
C153        C  0.08651485  0.19668404  0.39230554     0.74500
O154        O  0.10933849  0.30425271  0.06964361    -0.67000
O155        O  0.06407306  0.28092574  0.11967188    -0.54200
C156        C  0.09609636  0.29958512  0.10800515     0.72900
Zr157      Zr  0.08670670  0.28631847  0.50060091     2.77500
O158        O  0.18139972  0.28017213  0.50149684    -0.97800
O159        O  0.11047492  0.33299976  0.99383150    -0.78600
Zr160      Zr  0.07897244  0.20734280  0.50137683     2.70100
O161        O  0.17425673  0.21013944  0.49913125    -0.79900
O162        O  0.07234333  0.15824080  0.00510717    -0.98900
Zr163      Zr  0.00642555  0.25029468  0.08259276     2.21500
Zr164      Zr  0.00465775  0.24834461  0.41975999     2.11100
O165        O  0.08397294  0.24674314  0.45947220    -2.47600
O166        O  0.08573086  0.24633707  0.04284315    -0.79700
O167        O  0.00879637  0.28795218  0.46093338    -0.71800
O168        O  0.99891529  0.21031550  0.04244008    -2.32800
O169        O  0.01272896  0.28991736  0.04108524    -2.29000
O170        O  0.00072874  0.20868984  0.46178218    -0.73600
H171        H  0.89527865  0.25176652  0.44235872     0.78400
H172        H  0.99706702  0.19460182  0.06020242     0.79500
H173        H  0.11432384  0.24592652  0.44124485     0.81700
H174        H  0.01435741  0.30583188  0.05791367     0.79300
H175        H  0.93497123  0.15738666  0.00998694     0.42300
H176        H  0.05472295  0.15277527  0.48363012     0.41300
H177        H  0.18069314  0.18624817  0.00155389     0.41000
H178        H  0.19539423  0.29791456  0.50935860     0.38900
H179        H  0.05855496  0.34144449  0.49504384     0.42100
H180        H  0.96965681  0.34523392  0.02333015     0.36800
H181        H  0.83231137  0.31455982  0.99379303     0.43000
H182        H  0.82115325  0.22859787  0.47625269     0.39400
H183        H  0.18794221  0.26860426  0.52617305     0.44300
H184        H  0.91201231  0.34848596  0.00721625     0.43000
H185        H  0.81008961  0.20890966  0.01368352     0.43200
H186        H  0.11560677  0.15367567  0.49018009     0.43500
C187        C  0.25255176  0.12764707  0.20827324     0.45400
H188        H  0.24841286  0.13105064  0.17431595    -0.03600
C189        C  0.25574189  0.12008867  0.28765239     0.45400
H190        H  0.25738584  0.11674056  0.32193198    -0.03600
C191        C  0.29021230  0.14693648  0.22995031    -0.17300
C192        C  0.19949291  0.13288252  0.23037709    -0.17100
C193        C  0.27512509  0.09961973  0.22029163    -0.17500
C194        C  0.29193971  0.14245685  0.27196993    -0.17400
C195        C  0.20107739  0.12953851  0.27322308    -0.17000
C196        C  0.27529838  0.09553175  0.26332550    -0.17300
C197        C  0.76283483  0.12070571  0.20684854     0.45400
H198        H  0.76625759  0.12151618  0.17224138    -0.03600
C199        C  0.75660648  0.11892760  0.28686674     0.45400
H200        H  0.75331202  0.11968661  0.32125455    -0.03600
C201        C  0.71770458  0.13766395  0.22407478    -0.17300
C202        C  0.74912369  0.09240699  0.22354360    -0.17100
C203        C  0.81195459  0.13190571  0.22897735    -0.17500
C204        C  0.71409179  0.13630772  0.26665733    -0.17400
C205        C  0.74901894  0.09080582  0.26698333    -0.17000
C206        C  0.80822814  0.13149142  0.27183651    -0.17300
C207        C  0.26577152  0.36919666  0.20769964     0.45400
H208        H  0.26235110  0.37076677  0.17321197    -0.03600
C209        C  0.27548572  0.36552120  0.28750818     0.45400
H210        H  0.27844321  0.36360089  0.32176638    -0.03600
C211        C  0.30592552  0.34808374  0.22108562    -0.17300
C212        C  0.28692193  0.39524257  0.22791871    -0.17100
C213        C  0.21456175  0.35993228  0.23003626    -0.17500
C214        C  0.31129406  0.34624529  0.26323453    -0.17400
C215        C  0.29108091  0.39356912  0.27100379    -0.17000
C216        C  0.21987689  0.35838694  0.27296820    -0.17300
C217        C  0.73603065  0.36132378  0.28649773     0.45400
H218        H  0.72651997  0.35973715  0.31991246    -0.03600
C219        C  0.75347289  0.36758801  0.20781226     0.45400
H220        H  0.76050355  0.37006913  0.17373181    -0.03600
C221        C  0.70865132  0.34017903  0.25958212    -0.17300
C222        C  0.71653936  0.38829494  0.26989600    -0.17100
C223        C  0.79488733  0.35862253  0.27561420    -0.17500
C224        C  0.71778154  0.34384626  0.21784743    -0.17400
C225        C  0.72452928  0.39176122  0.22769349    -0.17000
C226        C  0.80385147  0.36067571  0.23286268    -0.17300
C227        C  0.13388132  0.30413094  0.17896886    -0.26400
C228        C  0.11975692  0.31647794  0.14130325    -0.14500
C229        C  0.12963102  0.34432198  0.13645934     0.36200
C230        C  0.15571148  0.35842760  0.16799813    -0.25800
C231        C  0.17411833  0.34552078  0.20426837    -0.15100
C232        C  0.16232327  0.31785603  0.20951858     0.37300
N233        N  0.18373779  0.30251009  0.24313154    -0.89300
H234        H  0.12674619  0.28287995  0.18339197     0.18400
H235        H  0.16441961  0.37946636  0.16296016     0.18400
N236        N  0.11375450  0.35891462  0.10000517    -0.88400
H237        H  0.20596095  0.28696226  0.23029883     0.35700
H238        H  0.15260318  0.29373633  0.25963936     0.40800
H239        H  0.07364001  0.35586914  0.09558639     0.40500
H240        H  0.13440320  0.35160256  0.07423790     0.35300
C241        C  0.20880213  0.32498762  0.33085283    -0.26400
C242        C  0.18486258  0.34318535  0.30293687    -0.14500
C243        C  0.12961827  0.34550799  0.30382356     0.36200
C244        C  0.10009078  0.32922335  0.33180056    -0.25800
C245        C  0.12503265  0.31123739  0.35935187    -0.15100
C246        C  0.17985374  0.30908456  0.35860424     0.37300
N247        N  0.20604411  0.29054038  0.38614181    -0.89300
H248        H  0.25069220  0.32240163  0.33071629     0.18400
H249        H  0.05783239  0.33111572  0.33302801     0.18400
N250        N  0.10390721  0.36449897  0.27695314    -0.88400
H251        H  0.24671713  0.29153971  0.38210113     0.35700
H252        H  0.19490483  0.27118271  0.37768729     0.40800
H253        H  0.11598628  0.38364865  0.28568790     0.40500
H254        H  0.06331161  0.36377136  0.28153474     0.35300
C255        C  0.19401811  0.16013192  0.33467477    -0.26400
C256        C  0.16761166  0.14534594  0.30389278    -0.14500
C257        C  0.11205659  0.14778394  0.30264549     0.36200
C258        C  0.08626260  0.16559097  0.33029307    -0.25800
C259        C  0.11391443  0.18019240  0.36042317    -0.15100
C260        C  0.16863554  0.17742378  0.36189352     0.37300
N261        N  0.20021362  0.19262362  0.38998297    -0.89300
H262        H  0.23557363  0.15887795  0.33829007     0.18400
H263        H  0.04425042  0.16729943  0.32913436     0.18400
N264        N  0.08032357  0.13165567  0.27587696    -0.88400
H265        H  0.19115386  0.18706200  0.42065815     0.35700
H266        H  0.19191024  0.21299146  0.38572033     0.40800
H267        H  0.10276717  0.11747589  0.25995682     0.40500
H268        H  0.06299060  0.14434545  0.25379640     0.35300
C269        C  0.13812144  0.13745421  0.17109826    -0.26400
C270        C  0.16058958  0.14927022  0.20626840    -0.14500
C271        C  0.15472286  0.17727480  0.21156861     0.36200
C272        C  0.12805762  0.19269957  0.18147367    -0.25800
C273        C  0.10886881  0.18101987  0.14500509    -0.15100
C274        C  0.11246986  0.15296519  0.14062702     0.37300
N275        N  0.09020686  0.14009469  0.10514139    -0.89300
H276        H  0.14270818  0.11610173  0.16623380     0.18400
H277        H  0.12532276  0.21421362  0.18547207     0.18400
N278        N  0.17883628  0.19065162  0.24563821    -0.88400
H279        H  0.06274538  0.12608442  0.11590998     0.35700
H280        H  0.12011014  0.12973295  0.08962777     0.40800
H281        H  0.14936219  0.20031548  0.26270724     0.40500
H282        H  0.20324406  0.20550233  0.23309040     0.35300
C283        C  0.89994116  0.15837893  0.14240411    -0.26400
C284        C  0.89140517  0.18610336  0.14525282    -0.14500
C285        C  0.86159921  0.19615710  0.17920580     0.36200
C286        C  0.84026498  0.17808341  0.20861481    -0.25800
C287        C  0.84698193  0.15021038  0.20462251    -0.15100
C288        C  0.87839076  0.14039366  0.17157278     0.37300
N289        N  0.88945658  0.11234497  0.16666549    -0.89300
H290        H  0.92355326  0.15054733  0.11697215     0.18400
H291        H  0.81476418  0.18578562  0.23294744     0.18400
N292        N  0.84872024  0.22409557  0.18326153    -0.88400
H293        H  0.87093933  0.10600749  0.13949622     0.35700
H294        H  0.87456060  0.10099442  0.19151746     0.40800
H295        H  0.86307638  0.23552351  0.15831453     0.40500
H296        H  0.86674806  0.23107066  0.21026248     0.35300
C297        C  0.91746411  0.16681902  0.33435642    -0.26400
C298        C  0.88775811  0.18292810  0.36159053    -0.14500
C299        C  0.83272567  0.18243899  0.35805361     0.36200
C300        C  0.80910156  0.16642601  0.32781107    -0.25800
C301        C  0.83827414  0.14954915  0.30108770    -0.15100
C302        C  0.89376065  0.14985614  0.30476190     0.37300
N303        N  0.92723492  0.13241211  0.28099136    -0.89300
H304        H  0.95944277  0.16653463  0.33741193     0.18400
H305        H  0.76694981  0.16708164  0.32587659     0.18400
N306        N  0.79957330  0.19824394  0.38453420    -0.88400
H307        H  0.94948235  0.14436105  0.26062386     0.35700
H308        H  0.90578207  0.11913788  0.26290996     0.40800
H309        H  0.81076571  0.21832288  0.38167235     0.40500
H310        H  0.80482371  0.19204154  0.41544511     0.35300
C311        C  0.91909805  0.33377096  0.33259432    -0.26400
C312        C  0.89595716  0.31739031  0.36351035    -0.14500
C313        C  0.84148588  0.31765201  0.36891659     0.36200
C314        C  0.81078566  0.33264177  0.34185612    -0.25800
C315        C  0.83211522  0.34750081  0.30812250    -0.15100
C316        C  0.88756329  0.34959818  0.30556792     0.37300
N317        N  0.91152159  0.36772039  0.27612638    -0.89300
H318        H  0.96140062  0.33465283  0.33017893     0.18400
H319        H  0.76955186  0.33088678  0.34722453     0.18400
N320        N  0.81721392  0.30218779  0.40199073    -0.88400
H321        H  0.95235657  0.36692609  0.27846808     0.35700
H322        H  0.90013097  0.38715121  0.28422380     0.40800
H323        H  0.82384921  0.28191628  0.39579820     0.40500
H324        H  0.77657408  0.30494388  0.40270813     0.35300
C325        C  0.86862457  0.36055550  0.17445026    -0.26400
C326        C  0.84683194  0.34667093  0.20876674    -0.14500
C327        C  0.85662628  0.31853459  0.21174668     0.36200
C328        C  0.88357639  0.30532595  0.17989498    -0.25800
C329        C  0.90163325  0.31890415  0.14436110    -0.15100
C330        C  0.89568577  0.34712543  0.14243971     0.37300
N331        N  0.91645904  0.36272573  0.10850022    -0.89300
H332        H  0.86182641  0.38192563  0.17123516     0.18400
H333        H  0.88841032  0.28377358  0.18226867     0.18400
N334        N  0.83645510  0.30193810  0.24450754    -0.88400
H335        H  0.89718525  0.35739789  0.08119567     0.35700
H336        H  0.95642304  0.35841000  0.10532373     0.40800
H337        H  0.79807302  0.30752885  0.25042932     0.40500
H338        H  0.85930359  0.30410935  0.27102311     0.35300
C339        C  0.74009072  0.07107201  0.33847255    -0.26400
C340        C  0.72940690  0.06837939  0.29576372    -0.14500
C341        C  0.69220361  0.04841359  0.28554050     0.36200
C342        C  0.65404785  0.04097243  0.31553809    -0.25800
C343        C  0.65846368  0.04864876  0.35765083    -0.15100
C344        C  0.70474855  0.06224540  0.36920956     0.37300
N345        N  0.71617059  0.06775178  0.41194967    -0.89300
H346        H  0.77451659  0.08188423  0.34840870     0.18400
H347        H  0.62371549  0.02702172  0.30663225     0.18400
N348        N  0.70110941  0.03015715  0.25182708    -0.88400
H349        H  0.71979626  0.08849601  0.41526505     0.35700
H350        H  0.75227253  0.05895272  0.41913849     0.40800
H351        H  0.73597860  0.03439789  0.23587757     0.40500
H352        H  0.66914244  0.03022026  0.23171470     0.35300
C353        C  0.65861039  0.07806398  0.20254991    -0.26400
C354        C  0.71324220  0.07693877  0.19555679    -0.14500
C355        C  0.73163072  0.06526342  0.15804485     0.36200
C356        C  0.69566687  0.05509533  0.12915587    -0.25800
C357        C  0.64127682  0.05525076  0.13683961    -0.15100
C358        C  0.62267908  0.06635668  0.17463130     0.37300
N359        N  0.56753413  0.06633489  0.18418969    -0.89300
H360        H  0.64407375  0.08751203  0.23065016     0.18400
H361        H  0.71066881  0.04638504  0.10056226     0.18400
N362        N  0.78651820  0.06298132  0.14835402    -0.88400
H363        H  0.56032154  0.07606391  0.21243486     0.35700
H364        H  0.55626839  0.04642560  0.18911299     0.40800
H365        H  0.80972852  0.06908694  0.17316052     0.40500
H366        H  0.79445045  0.07571601  0.12303551     0.35300
C367        C  0.36812194  0.08205191  0.12901400    -0.26400
C368        C  0.37621168  0.05482540  0.13480664    -0.14500
C369        C  0.35046264  0.04147851  0.16808597     0.36200
C370        C  0.31673283  0.05619596  0.19485279    -0.25800
C371        C  0.30923423  0.08411788  0.18965068    -0.15100
C372        C  0.33588570  0.09677431  0.15541798     0.37300
N373        N  0.33207408  0.12474348  0.14645667    -0.89300
H374        H  0.38772009  0.09239880  0.10339125     0.18400
H375        H  0.29608660  0.04575363  0.21970904     0.18400
N376        N  0.35772411  0.01314413  0.17405775    -0.88400
H377        H  0.37000096  0.13261864  0.14531884     0.35700
H378        H  0.31590906  0.12714501  0.11674431     0.40800
H379        H  0.34258113  0.00352669  0.14793571     0.40500
H380        H  0.33596161  0.00637085  0.19981408     0.35300
C381        C  0.36442305  0.07667850  0.28228968    -0.26400
C382        C  0.30953420  0.07639538  0.28817693    -0.14500
C383        C  0.28974166  0.06393605  0.32511103     0.36200
C384        C  0.32439298  0.05377348  0.35549113    -0.25800
C385        C  0.37912697  0.05482240  0.35031931    -0.15100
C386        C  0.39902399  0.06595926  0.31242580     0.37300
N387        N  0.45420526  0.06830570  0.30470397    -0.89300
H388        H  0.38093253  0.08708788  0.25548603     0.18400
H389        H  0.30805342  0.04480557  0.38361501     0.18400
N390        N  0.23442661  0.06156747  0.33324415    -0.88400
H391        H  0.47052200  0.04910705  0.30348666     0.35700
H392        H  0.47100803  0.07874027  0.32939822     0.40800
H393        H  0.21222364  0.06819184  0.30792998     0.40500
H394        H  0.22521627  0.07382712  0.35858965     0.35300
C395        C  0.61312289  0.43040593  0.17308589    -0.26400
C396        C  0.63887052  0.44067011  0.13770877    -0.14500
C397        C  0.69384121  0.43687855  0.13411533     0.36200
C398        C  0.72112064  0.42273719  0.16568744    -0.25800
C399        C  0.69492400  0.41127222  0.20019412    -0.15100
C400        C  0.63981214  0.41508078  0.20325651     0.37300
N401        N  0.60947768  0.40181445  0.23487534    -0.89300
H402        H  0.57098458  0.43271166  0.17601489     0.18400
H403        H  0.76300776  0.41964386  0.16241530     0.18400
N404        N  0.72204980  0.44744599  0.09865499    -0.88400
H405        H  0.58156916  0.38990623  0.22018933     0.35700
H406        H  0.58922240  0.41644612  0.25178841     0.40800
H407        H  0.71257625  0.43570021  0.07294456     0.40500
H408        H  0.76243870  0.44512890  0.10275676     0.35300
C409        C  0.62350600  0.41253530  0.35497612    -0.26400
C410        C  0.63537629  0.43970422  0.35662612    -0.14500
C411        C  0.67292433  0.45060289  0.32852282     0.36200
C412        C  0.69788314  0.43375167  0.29952463    -0.25800
C413        C  0.68626273  0.40633309  0.29820552    -0.15100
C414        C  0.64769736  0.39591374  0.32593716     0.37300
N415        N  0.63104479  0.36863552  0.32388917    -0.89300
H416        H  0.59426995  0.40413645  0.37606591     0.18400
H417        H  0.72753770  0.44198222  0.27872477     0.18400
N418        N  0.68820609  0.47819425  0.32942272    -0.88400
H419        H  0.59068075  0.36850324  0.31843434     0.35700
H420        H  0.63743978  0.35959797  0.35298446     0.40800
H421        H  0.66848130  0.48855493  0.35293453     0.40500
H422        H  0.67698813  0.48658769  0.30091334     0.35300
C423        C  0.35139320  0.40042611  0.33188415    -0.26400
C424        C  0.32250064  0.41207127  0.29900097    -0.14500
C425        C  0.32522587  0.44036734  0.29441357     0.36200
C426        C  0.35798127  0.45558070  0.32102668    -0.25800
C427        C  0.38653575  0.44308281  0.35327997    -0.15100
C428        C  0.38297976  0.41528022  0.35819670     0.37300
N429        N  0.41205421  0.40180232  0.39028227    -0.89300
H430        H  0.35039993  0.37937695  0.33845952     0.18300
H431        H  0.35916037  0.47719933  0.31769248     0.18400
N432        N  0.29304415  0.45391293  0.26453501    -0.88400
H433        H  0.43755822  0.38825476  0.37597721     0.35700
H434        H  0.38578580  0.39102589  0.40914858     0.40800
H435        H  0.26884821  0.46734976  0.28056527     0.40500
H436        H  0.31757961  0.46506433  0.24476950     0.35300
C437        C  0.40244887  0.42994536  0.17277004    -0.26400
C438        C  0.37754474  0.44181845  0.13847031    -0.14500
C439        C  0.32227671  0.44055393  0.13591625     0.36200
C440        C  0.29353410  0.42645814  0.16681467    -0.25800
C441        C  0.31861981  0.41361509  0.20035452    -0.15100
C442        C  0.37395035  0.41534151  0.20294667     0.37300
N443        N  0.40205361  0.40132075  0.23486176    -0.89300
H444        H  0.44480755  0.43072285  0.17499643     0.18400
H445        H  0.25132345  0.42487545  0.16419053     0.18400
N446        N  0.29556308  0.45338442  0.10180566    -0.88400
H447        H  0.43025828  0.38927554  0.22041358     0.35700
H448        H  0.42230974  0.41550417  0.25231339     0.40800
H449        H  0.30195233  0.47400934  0.10397946     0.40500
H450        H  0.25507922  0.45050946  0.10440971     0.35300
C451        C  0.36394548  0.28714818  0.32235721    -0.26400
C452        C  0.40340272  0.29991208  0.34473584    -0.14500
C453        C  0.42001698  0.32580783  0.33324822     0.36200
C454        C  0.39312893  0.33951107  0.30214456    -0.25800
C455        C  0.34830174  0.32835063  0.28451031    -0.15100
C456        C  0.33596533  0.30134130  0.29214637     0.37300
N457        N  0.29400579  0.28866569  0.27060081    -0.89300
H458        H  0.35279337  0.26676592  0.33006546     0.18400
H459        H  0.40554068  0.35950484  0.29335806     0.18400
N460        N  0.46327735  0.33864390  0.35310095    -0.88400
H461        H  0.26766901  0.28098813  0.29279688     0.35700
H462        H  0.30962402  0.27243692  0.25420233     0.40800
H463        H  0.49632646  0.32643131  0.34986149     0.40500
H464        H  0.45479759  0.34039016  0.38490976     0.35300
C465        C  0.34603453  0.30674791  0.12838952    -0.26400
C466        C  0.40055514  0.30883726  0.13005608    -0.14500
C467        C  0.42475345  0.32240640  0.16294492     0.36200
C468        C  0.39300638  0.33465180  0.19305964    -0.25800
C469        C  0.33816302  0.33313931  0.19089264    -0.15100
C470        C  0.31471644  0.31851765  0.15880931     0.37300
N471        N  0.25926827  0.31493866  0.15744748    -0.89300
H472        H  0.32764411  0.29550769  0.10363816     0.18400
H473        H  0.41115222  0.34558270  0.21792912     0.18400
N474        N  0.48090011  0.32466212  0.16462767    -0.88400
H475        H  0.24587345  0.32249489  0.12892586     0.35700
H476        H  0.25155249  0.29435757  0.15833906     0.40800
H477        H  0.49611613  0.30563128  0.17112888     0.40500
H478        H  0.49191444  0.33685713  0.18944534     0.35300
C479        C  0.70626199  0.29943793  0.30349985    -0.26400
C480        C  0.67844402  0.31785145  0.27879096    -0.14500
C481        C  0.62295845  0.31660021  0.27846525     0.36200
C482        C  0.59746136  0.29986604  0.30739197    -0.25800
C483        C  0.62622718  0.28487210  0.33650923    -0.15100
C484        C  0.68078084  0.28304532  0.33261148     0.37300
N485        N  0.71003116  0.26520341  0.35919179    -0.89300
H486        H  0.74826566  0.29863199  0.30201444     0.18400
H487        H  0.55506372  0.30023915  0.30928228     0.18400
N488        N  0.59117386  0.33346131  0.25234942    -0.88400
H489        H  0.74999728  0.26607930  0.35188481     0.35700
H490        H  0.69807976  0.24565819  0.35266535     0.40800
H491        H  0.61392667  0.34655443  0.23455446     0.40500
H492        H  0.57157212  0.32104502  0.23151793     0.35300
C493        C  0.67108684  0.28840378  0.14796936    -0.26400
C494        C  0.63993721  0.30318255  0.12043115    -0.14500
C495        C  0.63515882  0.33109458  0.12407187     0.36200
C496        C  0.66169980  0.34382571  0.15619151    -0.25800
C497        C  0.69219329  0.32903702  0.18443202    -0.15100
C498        C  0.69765663  0.30117045  0.17991513     0.37300
N499        N  0.73046461  0.28579443  0.20703617    -0.89300
H500        H  0.67454408  0.26684316  0.14472615     0.18400
H501        H  0.65771254  0.36527360  0.15973794     0.18400
N502        N  0.60177373  0.34609746  0.09640983    -0.88400
H503        H  0.70755677  0.27090724  0.22125212     0.35700
H504        H  0.75907470  0.27632361  0.18879900     0.40800
H505        H  0.61868241  0.34548837  0.06662684     0.40500
H506        H  0.60073783  0.36629428  0.10487533     0.35300
C507        C  0.65142638  0.13362891  0.32465716    -0.26400
C508        C  0.67492180  0.14939449  0.29329896    -0.14500
C509        C  0.66693289  0.17728012  0.29246603     0.36200
C510        C  0.63557226  0.18889198  0.32324007    -0.25800
C511        C  0.61490118  0.17322965  0.35596567    -0.15100
C512        C  0.62274701  0.14542342  0.35672849     0.37300
N513        N  0.60215903  0.12921740  0.39010121    -0.89300
H514        H  0.65736543  0.11212655  0.32530147     0.18400
H515        H  0.63004048  0.21044953  0.32301206     0.18400
N516        N  0.69326642  0.19399918  0.26246417    -0.88400
H517        H  0.63354523  0.11930948  0.40435399     0.35700
H518        H  0.57769036  0.11471815  0.37725442     0.40800
H519        H  0.71666009  0.20757918  0.27855916     0.40500
H520        H  0.66489917  0.20494611  0.24616905     0.35300
C521        C  0.71019561  0.16985176  0.16616050    -0.26400
C522        C  0.68449365  0.15390114  0.19602649    -0.14500
C523        C  0.62920339  0.15355825  0.19751545     0.36200
C524        C  0.60094434  0.16904739  0.16883022    -0.25800
C525        C  0.62712013  0.18435022  0.13843507    -0.15100
C526        C  0.68240967  0.18547889  0.13781872     0.37300
N527        N  0.71167842  0.20202765  0.10895255    -0.89300
H528        H  0.75249498  0.17033573  0.16475493     0.18400
H529        H  0.55847236  0.16811348  0.16900939     0.18400
N530        N  0.60152000  0.13674827  0.22652813    -0.88400
H531        H  0.73401023  0.21534154  0.12649539     0.35700
H532        H  0.68722920  0.21399788  0.09067967     0.40800
H533        H  0.57711477  0.14894279  0.24465260     0.40500
H534        H  0.57749530  0.12397254  0.20950977     0.35300
C535        C  0.34466378  0.19765881  0.33759891    -0.26400
C536        C  0.37207215  0.18237981  0.36675790    -0.14500
C537        C  0.37574674  0.15444374  0.36364317     0.36200
C538        C  0.35174554  0.14208135  0.33061218    -0.25800
C539        C  0.32351758  0.15715370  0.30139219    -0.15100
C540        C  0.31919428  0.18512782  0.30513536     0.37300
N541        N  0.28647967  0.20057438  0.27802905    -0.89300
H542        H  0.34218012  0.21923376  0.34064051     0.18400
H543        H  0.35404433  0.12054927  0.32850531     0.18400
N544        N  0.40407374  0.13835783  0.39315545    -0.88400
H545        H  0.25848670  0.21038209  0.29645083     0.35700
H546        H  0.30967217  0.21522593  0.26352992     0.40800
H547        H  0.38732855  0.14102020  0.42270692     0.40500
H548        H  0.44291062  0.14497606  0.39382257     0.35300
C549        C  0.40638209  0.18310799  0.18052455    -0.26400
C550        C  0.38092611  0.19722472  0.14857069    -0.14500
C551        C  0.32579243  0.19812172  0.14789819     0.36200
C552        C  0.29694090  0.18299886  0.17683223    -0.25800
C553        C  0.32217714  0.16692236  0.20658125    -0.15100
C554        C  0.37750658  0.16751332  0.20915271     0.37300
N555        N  0.40473462  0.15021116  0.23756233    -0.89300
H556        H  0.44883981  0.18217737  0.18095172     0.18400
H557        H  0.25465250  0.18278699  0.17459277     0.18400
N558        N  0.29903853  0.21385617  0.11706692    -0.88400
H559        H  0.42883172  0.16206396  0.25611244     0.35700
H560        H  0.42873453  0.13736260  0.22022547     0.40800
H561        H  0.27488900  0.22758419  0.13254895     0.40500
H562        H  0.27506399  0.20108266  0.09994842     0.35300
O563        O  0.39368535  0.20056962  0.57448345    -0.75400
O564        O  0.45065162  0.22168554  0.61760926    -0.54300
C565        C  0.40987507  0.20737698  0.61075433     0.78400
O566        O  0.59983518  0.18180279  0.92753422    -0.60000
O567        O  0.55339631  0.20573497  0.87951268    -0.53000
C568        C  0.58674921  0.18791256  0.88998951     0.70400
O569        O  0.60520515  0.18756414  0.56717759    -0.74500
O570        O  0.56339823  0.21507415  0.61335229    -0.55100
C571        C  0.59596130  0.19644354  0.60402242     0.76400
O572        O  0.38967311  0.19193397  0.93688901    -0.59700
O573        O  0.44043071  0.21050339  0.88538667    -0.52800
C574        C  0.40293002  0.19591818  0.89871391     0.73000
Zr575      Zr  0.42077068  0.20614777  0.50220786     2.54700
O576        O  0.41780785  0.15752162  0.50872629    -0.80200
O577        O  0.32645060  0.21222709  0.00839350    -0.93600
Zr578      Zr  0.57488346  0.19579503  0.49673186     2.64700
O579        O  0.55228261  0.14871898  0.50471768    -0.98600
O580        O  0.67045045  0.18777362  0.99680986    -0.80700
O581        O  0.49979298  0.20181687  0.53975661    -0.84000
O582        O  0.49612248  0.19811820  0.96129816    -2.18700
O583        O  0.41846149  0.29677948  0.91803318    -0.67400
O584        O  0.45255769  0.26515989  0.87458447    -0.52000
C585        C  0.42662756  0.28653057  0.88178432     0.71400
O586        O  0.62062767  0.29220551  0.54993824    -0.60300
O587        O  0.57491235  0.27155559  0.60264817    -0.52300
C588        C  0.60961100  0.28771009  0.58846617     0.73200
O589        O  0.61762525  0.28027902  0.91071014    -0.71700
O590        O  0.55818498  0.25951540  0.86938215    -0.50400
C591        C  0.59892573  0.27371106  0.87497658     0.74500
O592        O  0.42164014  0.30251010  0.55690219    -0.67000
O593        O  0.46484624  0.27865167  0.60713344    -0.54200
C594        C  0.43359457  0.29712952  0.59486970     0.72900
Zr595      Zr  0.43948520  0.28547073  0.99047948     2.77500
O596        O  0.45168112  0.33366296  0.48521716    -0.97800
O597        O  0.34489611  0.29221391  0.98893051    -0.78600
Zr598      Zr  0.59433439  0.27529849  0.98459735     2.70100
O599        O  0.60683527  0.32338113  0.97380296    -0.79900
O600        O  0.68914270  0.26666008  0.48550653    -0.98900
Zr601      Zr  0.51104902  0.24427432  0.57053815     2.21500
Zr602      Zr  0.50380022  0.23701885  0.91867905     2.11100
O603        O  0.51488955  0.27987134  0.94824512    -2.47600
O604        O  0.51971054  0.28234184  0.52569182    -0.79700
O605        O  0.42582340  0.24369395  0.95774905    -0.71800
O606        O  0.58796117  0.23753272  0.52944992    -2.32800
O607        O  0.43049119  0.24810706  0.53456676    -2.29000
O608        O  0.57660860  0.23465827  0.95778345    -0.73600
H609        H  0.49207177  0.18206621  0.94508624     0.78400
H610        H  0.61896386  0.23690071  0.54648823     0.79500
H611        H  0.51778118  0.29397360  0.92755859     0.81700
H612        H  0.40145209  0.25111195  0.55346754     0.79300
H613        H  0.68467978  0.20061483  0.48175435     0.42300
H614        H  0.69970740  0.26533145  0.95768796     0.41300
H615        H  0.64602974  0.32331881  0.45947862     0.41000
H616        H  0.48369062  0.33650419  0.00861363     0.38900
H617        H  0.33914775  0.30981809  0.00228128     0.42100
H618        H  0.31291790  0.19089435  0.49939754     0.36800
H619        H  0.38348290  0.15368790  0.52207967     0.43000
H620        H  0.59638209  0.14066504  0.00346023     0.39400
H621        H  0.47000555  0.33736231  0.96111637     0.44300
H622        H  0.31510043  0.22069327  0.48356763     0.43000
H623        H  0.58580457  0.14005408  0.51246850     0.43200
H624        H  0.70323544  0.28705227  0.99256521     0.43500
O625        O  0.39990501  0.44895860  0.56533852    -0.75400
O626        O  0.44869659  0.46911165  0.61551448    -0.54300
C627        C  0.41104915  0.45377409  0.60385223     0.78400
O628        O  0.61381343  0.44803033  0.92579573    -0.60000
O629        O  0.56747936  0.47105475  0.87627289    -0.53000
C630        C  0.60251434  0.45401604  0.88771569     0.70400
O631        O  0.61944104  0.44839249  0.56626653    -0.74500
O632        O  0.56797726  0.46861044  0.61538815    -0.55100
C633        C  0.60636815  0.45320557  0.60435053     0.76400
O634        O  0.40000862  0.45162448  0.92611735    -0.59700
O635        O  0.44739568  0.47378973  0.87592673    -0.52800
C636        C  0.41096825  0.45755315  0.88782151     0.73000
Zr637      Zr  0.43326158  0.46042647  0.49485743     2.54700
O638        O  0.44166547  0.41180869  0.49334524    -0.80200
O639        O  0.33493055  0.46135141  0.99648096    -0.93600
Zr640      Zr  0.58779753  0.46012610  0.49670367     2.64700
O641        O  0.58062369  0.41140358  0.49679227    -0.98600
O642        O  0.68065917  0.45744095  0.99256602    -0.80700
O643        O  0.50936707  0.45868713  0.53716516    -0.84000
O644        O  0.50829178  0.45976362  0.95520260    -2.18700
O645        O  0.39477392  0.04650021  0.92187449    -0.67400
O646        O  0.45024736  0.02876960  0.87327529    -0.52000
C647        C  0.40909326  0.04228396  0.88354013     0.71400
O648        O  0.61856243  0.04905121  0.56817382    -0.60300
O649        O  0.56818240  0.02792372  0.61749538    -0.52300
C650        C  0.60661227  0.04326136  0.60639262     0.73200
O651        O  0.62460992  0.04454851  0.92707446    -0.71700
O652        O  0.57600012  0.02632732  0.87547176    -0.50400
C653        C  0.61639888  0.03925807  0.88842860     0.74500
O654        O  0.40234448  0.04980868  0.56572040    -0.67000
O655        O  0.44511544  0.02628580  0.61674468    -0.54200
C656        C  0.41006767  0.04305829  0.60420729     0.72900
Zr657      Zr  0.42974349  0.03885882  0.99336182     2.77500
O658        O  0.44393587  0.08885332  0.49263989    -0.97800
O659        O  0.33814680  0.04519489  0.49528337    -0.78600
Zr660      Zr  0.58358909  0.04039810  0.99589874     2.70100
O661        O  0.56282843  0.08788520  0.99063434    -0.79900
O662        O  0.68111622  0.04714418  0.50483607    -0.98900
Zr663      Zr  0.50833663  0.49871024  0.57753531     2.21500
Zr664      Zr  0.50976580  0.50056167  0.91509450     2.11100
O665        O  0.50790177  0.04111918  0.95283551    -2.47600
O666        O  0.50886254  0.04029349  0.53800119    -0.79700
O667        O  0.43099867  0.50045408  0.95540405    -0.71800
O668        O  0.58746194  0.49931874  0.53764189    -2.32800
O669        O  0.43175104  0.50002509  0.53439262    -2.29000
O670        O  0.58689979  0.49987349  0.95688213    -0.73600
H671        H  0.50788347  0.44431921  0.93719773     0.78400
H672        H  0.61786651  0.49895896  0.55537744     0.79500
H673        H  0.50784644  0.05658549  0.93457062     0.81700
H674        H  0.40000404  0.49951675  0.55089773     0.79300
H675        H  0.69325464  0.47771477  0.50562252     0.42300
H676        H  0.69531889  0.04125696  0.98635392     0.41300
H677        H  0.59149756  0.09350249  0.46721330     0.41000
H678        H  0.40940090  0.09314978  0.96970532     0.38900
H679        H  0.32315707  0.02306736  0.00321460     0.42100
H680        H  0.32505341  0.47123812  0.51083072     0.36800
H681        H  0.46952422  0.40762207  0.51374789     0.43000
H682        H  0.57726309  0.40515162  0.97044103     0.39400
H683        H  0.42584237  0.09389869  0.01667086     0.44300
H684        H  0.32937267  0.44002190  0.50611099     0.43000
H685        H  0.58998151  0.40558220  0.52540385     0.43200
H686        H  0.67760619  0.07137641  0.99107320     0.43500
O687        O  0.91324375  0.30815673  0.57169599    -0.75400
O688        O  0.95181033  0.28130468  0.62053024    -0.54300
C689        C  0.92340208  0.30159848  0.60979177     0.78400
O690        O  0.89876448  0.19673962  0.93329842    -0.60000
O691        O  0.94549399  0.21897887  0.88283107    -0.53000
C692        C  0.91157288  0.20129806  0.89480327     0.70400
O693        O  0.90436173  0.19516322  0.57401079    -0.74500
O694        O  0.94903704  0.21957771  0.62220588    -0.55100
C695        C  0.91713119  0.20087323  0.61187500     0.76400
O696        O  0.91708433  0.30930862  0.93290223    -0.59700
O697        O  0.95336777  0.28296062  0.88228873    -0.52800
C698        C  0.92536523  0.30293836  0.89467693     0.73000
Zr699      Zr  0.93124235  0.29011209  0.50185526     2.54700
O700        O  0.83616248  0.28576259  0.50140253    -0.80200
O701        O  0.94667253  0.34097951  0.99952858    -0.93600
Zr702      Zr  0.92278299  0.21139978  0.50258411     2.64700
O703        O  0.82874080  0.22011146  0.50358873    -0.98600
O704        O  0.90069845  0.16616241  0.00501487    -0.80700
O705        O  0.92555045  0.25085549  0.54387566    -0.84000
O706        O  0.92558697  0.25324469  0.96119747    -2.18700
O707        O  0.11301904  0.29892449  0.92921870    -0.67400
O708        O  0.06302667  0.27796559  0.88040036    -0.52000
C709        C  0.09931613  0.29427934  0.89134949     0.71400
O710        O  0.09730100  0.19075785  0.57229843    -0.60300
O711        O  0.05933344  0.21785613  0.62109231    -0.52300
C712        C  0.08711986  0.19743908  0.61038471     0.73200
O713        O  0.09416451  0.19106447  0.93142273    -0.71700
O714        O  0.05513777  0.21662845  0.88099509    -0.50400
C715        C  0.08463326  0.19711609  0.89304434     0.74500
O716        O  0.10737903  0.30326968  0.57052429    -0.67000
O717        O  0.06350992  0.27919807  0.62044103    -0.54200
C718        C  0.09528349  0.29797851  0.60890359     0.72900
Zr719      Zr  0.09013991  0.28552476  0.00045841     2.77500
O720        O  0.18296341  0.27409143  0.00222659    -0.97800
O721        O  0.09505296  0.33486623  0.49760845    -0.78600
Zr722      Zr  0.07638757  0.20699167  0.00211913     2.70100
O723        O  0.17179931  0.20557249  0.00044264    -0.79900
O724        O  0.08184267  0.15854292  0.50358992    -0.98900
Zr725      Zr  0.00564867  0.24933563  0.58217173     2.21500
Zr726      Zr  0.00406573  0.24925479  0.92035143     2.11100
O727        O  0.08355895  0.24607291  0.95973281    -2.47600
O728        O  0.08499630  0.24679607  0.54233510    -0.79700
O729        O  0.01202728  0.28893075  0.96094727    -0.71800
O730        O  0.00118495  0.20933212  0.54172095    -2.32800
O731        O  0.00916367  0.28923275  0.54107424    -2.29000
O732        O  0.99828437  0.20965112  0.96234520    -0.73600
H733        H  0.89513587  0.25466395  0.94345684     0.78400
H734        H  0.00014615  0.19355313  0.55934176     0.79500
H735        H  0.11368224  0.24460671  0.94142340     0.81700
H736        H  0.01049169  0.30512655  0.55803581     0.79300
H737        H  0.94300376  0.15535326  0.50739230     0.42300
H738        H  0.04543979  0.15340053  0.98439014     0.41300
H739        H  0.18496895  0.21053199  0.52875192     0.41000
H740        H  0.20078571  0.28970116  0.98920726     0.38900
H741        H  0.07786103  0.34219388  0.00270441     0.42100
H742        H  0.94884326  0.34573410  0.51678688     0.36800
H743        H  0.82468549  0.29130006  0.52963530     0.43000
H744        H  0.81812807  0.22739934  0.97443603     0.39400
H745        H  0.19242213  0.27497713  0.03209160     0.44300
H746        H  0.88860948  0.34293450  0.50774555     0.43000
H747        H  0.81256280  0.20213452  0.50190292     0.43200
H748        H  0.10588043  0.15206471  0.99269795     0.43500
C749        C  0.25083564  0.12912253  0.70888402     0.45400
H750        H  0.24589522  0.13257479  0.67504569    -0.03600
C751        C  0.25552479  0.12157972  0.78822843     0.45400
H752        H  0.25796515  0.11815893  0.82248165    -0.03600
C753        C  0.28841229  0.14862680  0.73011578    -0.17300
C754        C  0.19808965  0.13382933  0.73159550    -0.17100
C755        C  0.27399263  0.10123468  0.72045222    -0.17500
C756        C  0.29102805  0.14419453  0.77211834    -0.17400
C757        C  0.20041006  0.13063555  0.77441029    -0.17000
C758        C  0.27465833  0.09707923  0.76343419    -0.17300
C759        C  0.76181079  0.12138116  0.70796383     0.45400
H760        H  0.76569374  0.12203256  0.67337983    -0.03600
C761        C  0.75425055  0.12017138  0.78800732     0.45400
H762        H  0.75027631  0.12130562  0.82233604    -0.03600
C763        C  0.71641899  0.13848167  0.72450095    -0.17300
C764        C  0.74809891  0.09314881  0.72498278    -0.17100
C765        C  0.81066927  0.13258527  0.73053726    -0.17500
C766        C  0.71204489  0.13732687  0.76700800    -0.17400
C767        C  0.74747834  0.09185641  0.76838775    -0.17000
C768        C  0.80605378  0.13261943  0.77335075    -0.17300
C769        C  0.26714322  0.36866664  0.70718569     0.45400
H770        H  0.26279452  0.37088103  0.67288733    -0.03600
C771        C  0.27785255  0.36382896  0.78669671     0.45400
H772        H  0.28100867  0.36129205  0.82085291    -0.03600
C773        C  0.30878335  0.34802814  0.71945925    -0.17300
C774        C  0.28747837  0.39463078  0.72797784    -0.17100
C775        C  0.21679027  0.35827255  0.72944932    -0.17500
C776        C  0.31467384  0.34547931  0.76160258    -0.17400
C777        C  0.29176616  0.39236665  0.77107933    -0.17000
C778        C  0.22257962  0.35617960  0.77214226    -0.17300
C779        C  0.73276097  0.36027565  0.78637859     0.45400
H780        H  0.72264765  0.35883810  0.81976974    -0.03600
C781        C  0.75066354  0.36612767  0.70766612     0.45400
H782        H  0.75803051  0.36870989  0.67364228    -0.03600
C783        C  0.70596088  0.33884101  0.75964916    -0.17300
C784        C  0.71293752  0.38708122  0.76932917    -0.17100
C785        C  0.79183926  0.35765632  0.77545116    -0.17500
C786        C  0.71539288  0.34219282  0.71785264    -0.17400
C787        C  0.72145892  0.39025937  0.72725277    -0.17000
C788        C  0.80092694  0.35952883  0.73266411    -0.17300
C789        C  0.13907444  0.30143844  0.67794650    -0.26400
C790        C  0.12026444  0.31438689  0.64213653    -0.14500
C791        C  0.12729975  0.34251744  0.63852718     0.36200
C792        C  0.15467916  0.35652564  0.66944485    -0.25800
C793        C  0.17702114  0.34327669  0.70387306    -0.15100
C794        C  0.16870903  0.31520323  0.70779429     0.37300
N795        N  0.19435598  0.29978810  0.73933887    -0.89300
H796        H  0.13436714  0.27993054  0.68125228     0.18400
H797        H  0.16094507  0.37786631  0.66535479     0.18400
N798        N  0.10710074  0.35751411  0.60389837    -0.88400
H799        H  0.21691847  0.28518215  0.72434931     0.35700
H800        H  0.16555491  0.28982554  0.75687868     0.40800
H801        H  0.06699567  0.35360104  0.60140918     0.40500
H802        H  0.12614026  0.35132073  0.57667316     0.35300
C803        C  0.21256307  0.32184381  0.82880613    -0.26400
C804        C  0.18818619  0.34023790  0.80146276    -0.14500
C805        C  0.13303000  0.34241175  0.80270850     0.36200
C806        C  0.10386044  0.32633715  0.83090167    -0.25800
C807        C  0.12910244  0.30853293  0.85846196    -0.15100
C808        C  0.18390943  0.30604465  0.85696514     0.37300
N809        N  0.21031311  0.28737570  0.88414614    -0.89300
H810        H  0.25447155  0.31925579  0.82809593     0.18400
H811        H  0.06161886  0.32850685  0.83235424     0.18400
N812        N  0.10665915  0.36141616  0.77654308    -0.88400
H813        H  0.25090989  0.28812377  0.87945082     0.35700
H814        H  0.19848281  0.26808826  0.87591795     0.40800
H815        H  0.08552839  0.37449099  0.79570600     0.40500
H816        H  0.07981515  0.35099051  0.75830378     0.35300
C817        C  0.19304777  0.16147775  0.83540539    -0.26400
C818        C  0.16677894  0.14617750  0.80519033    -0.14500
C819        C  0.11111136  0.14803840  0.80423188     0.36200
C820        C  0.08485767  0.16575445  0.83167584    -0.25800
C821        C  0.11232905  0.18086705  0.86122894    -0.15100
C822        C  0.16719548  0.17874417  0.86240203     0.37300
N823        N  0.19833177  0.19462381  0.88987774    -0.89300
H824        H  0.23481240  0.16078230  0.83837463     0.18400
H825        H  0.04265819  0.16695307  0.83087695     0.18400
N826        N  0.07977135  0.13141309  0.77792477    -0.88400
H827        H  0.18965474  0.18932312  0.92070916     0.35700
H828        H  0.18908419  0.21484056  0.88509523     0.40800
H829        H  0.10259220  0.11731059  0.76217772     0.40500
H830        H  0.06182427  0.14376446  0.75569603     0.35300
C831        C  0.13701489  0.13714907  0.67230478    -0.26400
C832        C  0.15829829  0.14946120  0.70754768    -0.14500
C833        C  0.15225824  0.17745604  0.71204908     0.36200
C834        C  0.12656005  0.19246722  0.68103672    -0.25800
C835        C  0.10871089  0.18037167  0.64441723    -0.15100
C836        C  0.11248527  0.15222896  0.64065497     0.37300
N837        N  0.09219852  0.13909430  0.60443743    -0.89300
H838        H  0.14239003  0.11576307  0.66832374     0.18400
H839        H  0.12359768  0.21401583  0.68446646     0.18400
N840        N  0.17547187  0.19118018  0.74624941    -0.88400
H841        H  0.05156296  0.14189696  0.60445982     0.35700
H842        H  0.09863151  0.11841508  0.60628397     0.40800
H843        H  0.14566090  0.20124402  0.76236328     0.40500
H844        H  0.20095280  0.20564463  0.73397686     0.35300
C845        C  0.90028558  0.15600090  0.64302235    -0.26400
C846        C  0.89487304  0.18391215  0.64574560    -0.14500
C847        C  0.86800930  0.19485322  0.68040954     0.36200
C848        C  0.84440862  0.17772416  0.70991830    -0.25800
C849        C  0.84773162  0.14971267  0.70609442    -0.15100
C850        C  0.87788635  0.13884777  0.67306038     0.37300
N851        N  0.88689791  0.11056257  0.66914449    -0.89300
H852        H  0.92223747  0.14742188  0.61726388     0.18400
H853        H  0.82044200  0.18638240  0.73442351     0.18400
N854        N  0.86143200  0.22318432  0.68512557    -0.88400
H855        H  0.86738385  0.10413143  0.64249715     0.35700
H856        H  0.87200932  0.09994487  0.69477700     0.40800
H857        H  0.84351700  0.23087505  0.65832125     0.40500
H858        H  0.89840583  0.23190755  0.68803847     0.35300
C859        C  0.91475660  0.16656297  0.83810019    -0.26400
C860        C  0.88538775  0.18477759  0.86218287    -0.14500
C861        C  0.83078944  0.18606463  0.85588669     0.36200
C862        C  0.80713089  0.16938384  0.82645400    -0.25800
C863        C  0.83596862  0.15072728  0.80256413    -0.15100
C864        C  0.89098105  0.14940989  0.80878497     0.37300
N865        N  0.92364527  0.13017148  0.78784101    -0.89300
H866        H  0.95635482  0.16486934  0.84337599     0.18400
H867        H  0.76532501  0.17104410  0.82259530     0.18400
N868        N  0.79828546  0.20436030  0.87869330    -0.88400
H869        H  0.94910568  0.14075967  0.76805663     0.35700
H870        H  0.90182601  0.11735692  0.76921855     0.40800
H871        H  0.81253290  0.22377522  0.87379608     0.40500
H872        H  0.80092781  0.19971654  0.91045385     0.35300
C873        C  0.91677052  0.33412730  0.83260293    -0.26400
C874        C  0.89413630  0.31810786  0.86417587    -0.14500
C875        C  0.83964783  0.31799895  0.86960926     0.36200
C876        C  0.80849573  0.33251204  0.84223869    -0.25800
C877        C  0.82938974  0.34700727  0.80798701    -0.15100
C878        C  0.88478752  0.34925982  0.80501814     0.37300
N879        N  0.90828218  0.36692884  0.77467860    -0.89300
H880        H  0.95907392  0.33518389  0.82999999     0.18400
H881        H  0.76730007  0.33077479  0.84787191     0.18400
N882        N  0.81584170  0.30261988  0.90297616    -0.88400
H883        H  0.94914362  0.36635769  0.77688169     0.35700
H884        H  0.89664274  0.38645627  0.78195000     0.40800
H885        H  0.82312494  0.28235334  0.89719577     0.40500
H886        H  0.77511747  0.30503778  0.90360992     0.35300
C887        C  0.86578450  0.35939212  0.67414010    -0.26400
C888        C  0.84386428  0.34549123  0.70841996    -0.14500
C889        C  0.85306483  0.31731334  0.71100298     0.36200
C890        C  0.88084052  0.30418455  0.67940860    -0.25800
C891        C  0.89926532  0.31777313  0.64393238    -0.15100
C892        C  0.89266011  0.34598782  0.64193661     0.37300
N893        N  0.91215807  0.36161422  0.60756036    -0.89300
H894        H  0.85889425  0.38075645  0.67094556     0.18400
H895        H  0.88550989  0.28263080  0.68168774     0.18400
N896        N  0.83129042  0.30064184  0.74302411    -0.88400
H897        H  0.89220155  0.35608513  0.58067285     0.35700
H898        H  0.95209981  0.35750206  0.60368726     0.40800
H899        H  0.79211854  0.30564011  0.74669717     0.40500
H900        H  0.85148790  0.30353877  0.77068809     0.35300
C901        C  0.73742954  0.07244958  0.83978605    -0.26400
C902        C  0.72848405  0.06927228  0.79700541    -0.14500
C903        C  0.69365272  0.04831460  0.78623715     0.36200
C904        C  0.65504858  0.04017803  0.81544324    -0.25800
C905        C  0.65706643  0.04842307  0.85739409    -0.15100
C906        C  0.70164448  0.06320754  0.86975112     0.37300
N907        N  0.71072335  0.06969696  0.91249342    -0.89300
H908        H  0.77067056  0.08393580  0.85036580     0.18400
H909        H  0.62626081  0.02549289  0.80616760     0.18400
N910        N  0.70539797  0.03018755  0.75287796    -0.88400
H911        H  0.71232789  0.09056173  0.91503416     0.35700
H912        H  0.74724292  0.06189629  0.92097627     0.40800
H913        H  0.74051714  0.03518706  0.73782621     0.40500
H914        H  0.67437289  0.02970467  0.73187222     0.35300
C915        C  0.65804935  0.07801589  0.70420154    -0.26400
C916        C  0.71272244  0.07716848  0.69731994    -0.14500
C917        C  0.73163357  0.06469263  0.66061426     0.36200
C918        C  0.69610953  0.05393872  0.63198146    -0.25800
C919        C  0.64166915  0.05436310  0.63915585    -0.15100
C920        C  0.62253027  0.06588495  0.67643092     0.37300
N921        N  0.56724329  0.06598794  0.68544040    -0.89300
H922        H  0.64317329  0.08775374  0.73194463     0.18400
H923        H  0.71145405  0.04473793  0.60387684     0.18400
N924        N  0.78659338  0.06203446  0.65162153    -0.88400
H925        H  0.55962973  0.07602212  0.71335415     0.35700
H926        H  0.55588880  0.04613492  0.69079507     0.40800
H927        H  0.80936839  0.06846818  0.67645508     0.40500
H928        H  0.79511511  0.07423307  0.62579199     0.35300
C929        C  0.36668758  0.08367911  0.62878618    -0.26400
C930        C  0.37630131  0.05659838  0.63540414    -0.14500
C931        C  0.35052640  0.04331773  0.66875965     0.36200
C932        C  0.31607757  0.05794339  0.69504395    -0.25800
C933        C  0.30769986  0.08576081  0.68943910    -0.15100
C934        C  0.33336721  0.09830061  0.65461467     0.37300
N935        N  0.32706589  0.12596654  0.64420947    -0.89300
H936        H  0.38571082  0.09396215  0.60283814     0.18400
H937        H  0.29551985  0.04744312  0.71987299     0.18400
N938        N  0.35834968  0.01506695  0.67525298    -0.88400
H939        H  0.36426231  0.13462936  0.64217378     0.35700
H940        H  0.31031093  0.12731058  0.61456012     0.40800
H941        H  0.34352896  0.00515301  0.64926792     0.40500
H942        H  0.33669934  0.00833268  0.70110389     0.35300
C943        C  0.36253638  0.07703679  0.78224526    -0.26400
C944        C  0.30765980  0.07717686  0.78763472    -0.14500
C945        C  0.28660391  0.06366538  0.82313001     0.36200
C946        C  0.32031811  0.05247137  0.85337443    -0.25800
C947        C  0.37521782  0.05339428  0.84902108    -0.15100
C948        C  0.39613891  0.06512992  0.81191354     0.37300
N949        N  0.45147878  0.06677727  0.80451140    -0.89300
H950        H  0.37983611  0.08790600  0.75619873     0.18400
H951        H  0.30321358  0.04290867  0.88072371     0.18400
N952        N  0.23101723  0.06113834  0.82975552    -0.88400
H953        H  0.46663750  0.04737453  0.80216867     0.35700
H954        H  0.46879265  0.07636914  0.82979920     0.40800
H955        H  0.20981545  0.06857600  0.80441379     0.40500
H956        H  0.22094136  0.07268208  0.85569629     0.35300
C957        C  0.61006246  0.42703366  0.67061077    -0.26400
C958        C  0.63710249  0.43945739  0.63764203    -0.14500
C959        C  0.69252123  0.43740190  0.63614517     0.36200
C960        C  0.71915638  0.42275385  0.66742665    -0.25800
C961        C  0.69190488  0.40949899  0.69970045    -0.15100
C962        C  0.63642543  0.41153236  0.70066752     0.37300
N963        N  0.60587722  0.39647538  0.73012519    -0.89300
H964        H  0.56760806  0.42803843  0.67174594     0.18400
H965        H  0.76145448  0.42086634  0.66579854     0.18400
N966        N  0.72175637  0.45038521  0.60325071    -0.88400
H967        H  0.58005493  0.38443554  0.71343105     0.35700
H968        H  0.58317299  0.40999620  0.74731828     0.40800
H969        H  0.71522752  0.43972437  0.57585449     0.40500
H970        H  0.76200208  0.44894361  0.60884815     0.35300
C971        C  0.61591130  0.41174075  0.85150756    -0.26400
C972        C  0.62967048  0.43862103  0.85503894    -0.14500
C973        C  0.66930112  0.44932022  0.82853126     0.36200
C974        C  0.69454391  0.43251604  0.79951020    -0.25800
C975        C  0.68151523  0.40529637  0.79675765    -0.15100
C976        C  0.64098415  0.39512203  0.82277538     0.37300
N977        N  0.62382992  0.36799477  0.81957185    -0.89300
H978        H  0.58523841  0.40347071  0.87137005     0.18400
H979        H  0.72578656  0.44055200  0.78005515     0.18400
N980        N  0.68654202  0.47658205  0.83126039    -0.88400
H981        H  0.58379440  0.36818030  0.81276997     0.35700
H982        H  0.62849285  0.35867608  0.84866481     0.40800
H983        H  0.66586786  0.48700534  0.85419362     0.40500
H984        H  0.67824134  0.48573273  0.80264487     0.35300
C985        C  0.35049340  0.39942258  0.83282187    -0.26400
C986        C  0.32133850  0.41099082  0.79999138    -0.14500
C987        C  0.32213859  0.43934794  0.79625256     0.36200
C988        C  0.35282547  0.45479459  0.82398490    -0.25800
C989        C  0.38172892  0.44238100  0.85607583    -0.15100
C990        C  0.38050027  0.41449015  0.85994723     0.37300
N991        N  0.41086123  0.40115283  0.89140686    -0.89300
H992        H  0.35126822  0.37828309  0.83854319     0.18300
H993        H  0.35277523  0.47645107  0.82119797     0.18400
N994        N  0.29060870  0.45264382  0.76567457    -0.88400
H995        H  0.43775768  0.38861809  0.87645338     0.35700
H996        H  0.38569817  0.38930406  0.90964578     0.40800
H997        H  0.26487192  0.46555320  0.78123353     0.40500
H998        H  0.31534974  0.46433919  0.74684715     0.35300
C999        C  0.40242411  0.43087062  0.67344052    -0.26400
C1000       C  0.37830944  0.44070439  0.63715577    -0.14500
C1001       C  0.32358260  0.43726427  0.63283890     0.36200
C1002       C  0.29466015  0.42393143  0.66450821    -0.25800
C1003       C  0.31895190  0.41326135  0.70024645    -0.15100
C1004       C  0.37396393  0.41639230  0.70396227     0.37300
N1005       N  0.40204664  0.40352794  0.73704205    -0.89300
H1006       H  0.44445947  0.43291748  0.67693141     0.18400
H1007       H  0.25288682  0.42104011  0.66065019     0.18400
N1008       N  0.29750155  0.44714699  0.59618927    -0.88400
H1009       H  0.43040937  0.39101580  0.72376694     0.35700
H1010       H  0.42177158  0.41831656  0.75366040     0.40800
H1011       H  0.30049285  0.46803884  0.59612919     0.40500
H1012       H  0.25749367  0.44267868  0.59748004     0.35300
C1013       C  0.36791768  0.28690284  0.82145582    -0.26400
C1014       C  0.40498172  0.30021291  0.84558333    -0.14500
C1015       C  0.42189684  0.32603560  0.83384226     0.36200
C1016       C  0.39611875  0.33943995  0.80170600    -0.25800
C1017       C  0.35273253  0.32780417  0.78254202    -0.15100
C1018       C  0.34168128  0.30059351  0.78967511     0.37300
N1019       N  0.30267367  0.28714278  0.76598090    -0.89300
H1020       H  0.35733737  0.26638038  0.82872954     0.18400
H1021       H  0.40811775  0.35956303  0.79325030     0.18400
N1022       N  0.46464485  0.33898751  0.85416508    -0.88400
H1023       H  0.27524151  0.27894359  0.78683336     0.35700
H1024       H  0.32083666  0.27123346  0.75046544     0.40800
H1025       H  0.49774035  0.32671125  0.85172246     0.40500
H1026       H  0.45524000  0.34097415  0.88575402     0.35300
C1027       C  0.34988379  0.31123385  0.62270390    -0.26400
C1028       C  0.40431312  0.31131594  0.62657439    -0.14500
C1029       C  0.42827124  0.32332170  0.66102517     0.36200
C1030       C  0.39628230  0.33505656  0.69150614    -0.25800
C1031       C  0.34141133  0.33444224  0.68809264    -0.15100
C1032       C  0.31826549  0.32255932  0.65316036     0.37300
N1033       N  0.26264255  0.32138337  0.64864794    -0.89300
H1034       H  0.33157977  0.30164096  0.59627527     0.18400
H1035       H  0.41429269  0.34507586  0.71742884     0.18400
N1036       N  0.48444179  0.32463605  0.66389678    -0.88400
H1037       H  0.25269095  0.33106487  0.62072756     0.35700
H1038       H  0.25187541  0.30125372  0.64621424     0.40800
H1039       H  0.49837493  0.30521796  0.66929636     0.40500
H1040       H  0.49533743  0.33590702  0.68978403     0.35300
C1041       C  0.70494019  0.29862411  0.80459430    -0.26400
C1042       C  0.67652859  0.31648713  0.77932404    -0.14500
C1043       C  0.62118228  0.31449173  0.77842440     0.36200
C1044       C  0.59609224  0.29817178  0.80800932    -0.25800
C1045       C  0.62525511  0.28407468  0.83786191    -0.15100
C1046       C  0.67979079  0.28236508  0.83403261     0.37300
N1047       N  0.70925583  0.26485243  0.86098246    -0.89300
H1048       H  0.74702908  0.29812314  0.80297338     0.18400
H1049       H  0.55365682  0.29821727  0.80974611     0.18400
N1050       N  0.58904455  0.33008624  0.75078621    -0.88400
H1051       H  0.74917940  0.26580287  0.85357071     0.35700
H1052       H  0.69754490  0.24520837  0.85488059     0.40800
H1053       H  0.61155925  0.34258670  0.73184332     0.40500
H1054       H  0.57009366  0.31671082  0.73104158     0.35300
C1055       C  0.66442401  0.28644527  0.65000787    -0.26400
C1056       C  0.63948280  0.30170756  0.61928346    -0.14500
C1057       C  0.64034950  0.32977993  0.62016022     0.36200
C1058       C  0.66594724  0.34222171  0.65289979    -0.25800
C1059       C  0.69066673  0.32709631  0.68421750    -0.15100
C1060       C  0.69066114  0.29888560  0.68235473     0.37300
N1061       N  0.71779098  0.28271160  0.71225149    -0.89300
H1062       H  0.66363475  0.26472077  0.64875348     0.18400
H1063       H  0.66555572  0.36386008  0.65440311     0.18400
N1064       N  0.61311968  0.34540509  0.58919169    -0.88400
H1065       H  0.69082384  0.26948133  0.72595363     0.35700
H1066       H  0.74579230  0.27126826  0.69633982     0.40800
H1067       H  0.63287542  0.34296515  0.56078251     0.40500
H1068       H  0.61517978  0.36583120  0.59606828     0.35300
C1069       C  0.64740491  0.13471444  0.82355474    -0.26400
C1070       C  0.67232845  0.15051882  0.79295541    -0.14500
C1071       C  0.66557909  0.17849338  0.79262822     0.36200
C1072       C  0.63491338  0.19022347  0.82372889    -0.25800
C1073       C  0.61338499  0.17447658  0.85597722    -0.15100
C1074       C  0.61892094  0.14655668  0.85569256     0.37300
N1075       N  0.59610468  0.13029508  0.88806797    -0.89300
H1076       H  0.65228112  0.11313345  0.82364874     0.18400
H1077       H  0.63056021  0.21184664  0.82412417     0.18400
N1078       N  0.69270094  0.19511979  0.76293764    -0.88400
H1079       H  0.62619730  0.11941012  0.90236771     0.35700
H1080       H  0.57068237  0.11663041  0.87422567     0.40800
H1081       H  0.71658703  0.20835696  0.77926938     0.40500
H1082       H  0.66482879  0.20646910  0.74676787     0.35300
C1083       C  0.70931390  0.17112465  0.66698262    -0.26400
C1084       C  0.68349852  0.15466729  0.69612693    -0.14500
C1085       C  0.62822354  0.15372687  0.69669664     0.36200
C1086       C  0.60003982  0.16890553  0.66759099    -0.25800
C1087       C  0.62626483  0.18453526  0.63767004    -0.15100
C1088       C  0.68150561  0.18639134  0.63806318     0.37300
N1089       N  0.71067427  0.20332685  0.60969553    -0.89300
H1090       H  0.75165979  0.17220483  0.66661804     0.18400
H1091       H  0.55762917  0.16748084  0.66709850     0.18400
N1092       N  0.60052630  0.13661361  0.72525679    -0.88400
H1093       H  0.73143814  0.21708922  0.62760949     0.35700
H1094       H  0.68613672  0.21476102  0.59068199     0.40800
H1095       H  0.57526153  0.14854799  0.74305799     0.40500
H1096       H  0.57738123  0.12363417  0.70784810     0.35300
C1097       C  0.34564426  0.19818952  0.83927409    -0.26400
C1098       C  0.37415463  0.18237530  0.86726866    -0.14500
C1099       C  0.37951368  0.15456757  0.86167112     0.36200
C1100       C  0.35388330  0.14302148  0.82857912    -0.25800
C1101       C  0.32406819  0.15855349  0.80105853    -0.15100
C1102       C  0.32012618  0.18642212  0.80603998     0.37300
N1103       N  0.28812669  0.20249650  0.77917961    -0.89300
H1104       H  0.34265070  0.21964807  0.84367337     0.18400
H1105       H  0.35644162  0.12160128  0.82500377     0.18400
N1106       N  0.41036120  0.13750846  0.88844655    -0.88400
H1107       H  0.25989271  0.21211489  0.79759520     0.35700
H1108       H  0.31185556  0.21723824  0.76545912     0.40800
H1109       H  0.42839920  0.14808535  0.91227352     0.40500
H1110       H  0.44056682  0.12930700  0.87032842     0.35300
C1111       C  0.40481126  0.18314875  0.67846973    -0.26400
C1112       C  0.37931513  0.19734663  0.64661881    -0.14500
C1113       C  0.32418652  0.19848951  0.64621441     0.36200
C1114       C  0.29530774  0.18416060  0.67613921    -0.25800
C1115       C  0.32051762  0.16818569  0.70606025    -0.15100
C1116       C  0.37589612  0.16797487  0.70760315     0.37300
N1117       N  0.40293038  0.15019348  0.73540934    -0.89300
H1118       H  0.44723991  0.18182079  0.67843662     0.18400
H1119       H  0.25295826  0.18428159  0.67438095     0.18400
N1120       N  0.29743693  0.21357332  0.61460689    -0.88400
H1121       H  0.42840519  0.16160866  0.75344503     0.35700
H1122       H  0.42549062  0.13696939  0.71754928     0.40800
H1123       H  0.27354505  0.22772589  0.62937600     0.40500
H1124       H  0.27319926  0.20046775  0.59833299     0.35300
O1125       O  0.39448229  0.70047031  0.07481871    -0.75400
O1126       O  0.45336907  0.71998306  0.11828736    -0.54300
C1127       C  0.41169826  0.70639653  0.11126505     0.78400
O1128       O  0.59726128  0.67774798  0.42687104    -0.60000
O1129       O  0.55211754  0.70234942  0.37875352    -0.53000
C1130       C  0.58450155  0.68399729  0.38924707     0.70400
O1131       O  0.60274489  0.68320773  0.06722752    -0.74500
O1132       O  0.56565363  0.71210510  0.11383586    -0.55100
C1133       C  0.59594003  0.69258237  0.10408494     0.76400
O1134       O  0.39043638  0.69032725  0.43686084    -0.59700
O1135       O  0.44117802  0.70852051  0.38493721    -0.52800
C1136       C  0.40379757  0.69401655  0.39863505     0.73000
Zr1137     Zr  0.41942927  0.70696861  0.00186965     2.54700
O1138       O  0.39681358  0.65979853  0.00949576    -0.80200
O1139       O  0.32729960  0.70811816  0.50457954    -0.93600
Zr1140     Zr  0.57285566  0.69228704  0.99689084     2.64700
O1141       O  0.54841711  0.64526907  0.00301814    -0.98600
O1142       O  0.66889376  0.68140333  0.49331655    -0.80700
O1143       O  0.49815657  0.70032613  0.03955165    -0.84000
O1144       O  0.49652250  0.69609969  0.46056801    -2.18700
O1145       O  0.41820986  0.79431059  0.41965250    -0.67400
O1146       O  0.45338902  0.76373785  0.37483473    -0.52000
C1147       C  0.42631163  0.78459349  0.38307713     0.71400
O1148       O  0.62755828  0.78851539  0.05060562    -0.60300
O1149       O  0.58095309  0.76846611  0.10336305    -0.52300
C1150       C  0.61611245  0.78440237  0.08912482     0.73200
O1151       O  0.61972004  0.77801867  0.41071242    -0.71700
O1152       O  0.56082713  0.75723489  0.36887743    -0.50400
C1153       C  0.60122379  0.77172213  0.37481402     0.74500
O1154       O  0.42644783  0.80132355  0.05888871    -0.67000
O1155       O  0.46988105  0.77714426  0.10866865    -0.54200
C1156       C  0.43832813  0.79564130  0.09677342     0.72900
Zr1157     Zr  0.44287336  0.78326458  0.49114112     2.77500
O1158       O  0.46669002  0.83295277  0.98439339    -0.97800
O1159       O  0.34797202  0.78876852  0.49326798    -0.78600
Zr1160     Zr  0.59763884  0.77203417  0.48441173     2.70100
O1161       O  0.61297854  0.81979682  0.47445073    -0.79900
O1162       O  0.69367106  0.75926568  0.98728254    -0.98900
Zr1163     Zr  0.51454267  0.74218419  0.07151511     2.21500
Zr1164     Zr  0.50480283  0.73484805  0.41767778     2.11100
O1165       O  0.51784971  0.77715836  0.44848157    -2.47600
O1166       O  0.52643620  0.78024857  0.02711355    -0.79700
O1167       O  0.42787908  0.74188096  0.45792805    -0.71800
O1168       O  0.59058622  0.73343413  0.03030382    -2.32800
O1169       O  0.43431871  0.74806962  0.03547244    -2.29000
O1170       O  0.58653961  0.73041854  0.45127562    -0.73600
H1171       H  0.49168038  0.68016376  0.44427010     0.78400
H1172       H  0.62158311  0.73205700  0.04723135     0.79500
H1173       H  0.52063265  0.79136645  0.42800786     0.81700
H1174       H  0.40550581  0.75143894  0.05444079     0.79300
H1175       H  0.68429080  0.69535620  0.99807438     0.42300
H1176       H  0.70799368  0.78095485  0.48764512     0.41300
H1177       H  0.58939280  0.82659294  0.96907986     0.41000
H1178       H  0.47670610  0.83589795  0.51234052     0.38900
H1179       H  0.33611067  0.77766010  0.51727671     0.42100
H1180       H  0.30810722  0.70200474  0.00424186     0.36800
H1181       H  0.42762820  0.65006191  0.99828309     0.43000
H1182       H  0.53189697  0.64530836  0.53121057     0.39400
H1183       H  0.48156294  0.83408994  0.46376735     0.44300
H1184       H  0.31989414  0.72633240  0.97442235     0.43000
H1185       H  0.52871459  0.64141180  0.97726484     0.43200
H1186       H  0.69920060  0.75189606  0.50513160     0.43500
O1187       O  0.40066496  0.94896898  0.06656280    -0.75400
O1188       O  0.45077145  0.96932218  0.11574119    -0.54300
C1189       C  0.41271673  0.95402765  0.10476247     0.78400
O1190       O  0.61793986  0.94923077  0.42675546    -0.60000
O1191       O  0.57100502  0.97181290  0.37707137    -0.53000
C1192       C  0.60659232  0.95511712  0.38863002     0.70400
O1193       O  0.62014688  0.94922985  0.06530473    -0.74500
O1194       O  0.57036834  0.97030506  0.11468276    -0.55100
C1195       C  0.60816125  0.95457388  0.10353656     0.76400
O1196       O  0.40494382  0.95049957  0.42598110    -0.59700
O1197       O  0.45041530  0.97367424  0.37581065    -0.52800
C1198       C  0.41521891  0.95671509  0.38767806     0.73000
Zr1199     Zr  0.43304118  0.95934845  0.99571316     2.54700
O1200       O  0.44147542  0.91072064  0.99819318    -0.80200
O1201       O  0.33767906  0.95862868  0.49059081    -0.93600
Zr1202     Zr  0.58730138  0.96048203  0.99542758     2.64700
O1203       O  0.57675677  0.91191846  0.99580556    -0.98600
O1204       O  0.68304178  0.95887271  0.49705279    -0.80700
O1205       O  0.51004405  0.95874868  0.03709092    -0.84000
O1206       O  0.51077364  0.96015426  0.45561106    -2.18700
O1207       O  0.39809427  0.54723427  0.42301750    -0.67400
O1208       O  0.45369786  0.52983766  0.37432129    -0.52000
C1209       C  0.41227558  0.54314512  0.38467903     0.71400
O1210       O  0.61725432  0.54917743  0.06819086    -0.60300
O1211       O  0.56759671  0.52755779  0.11739661    -0.52300
C1212       C  0.60571739  0.54312751  0.10641047     0.73200
O1213       O  0.62816352  0.54551734  0.42981810    -0.71700
O1214       O  0.57977624  0.52714506  0.37810820    -0.50400
C1215       C  0.61985969  0.54022569  0.39117465     0.74500
O1216       O  0.40123236  0.54836331  0.06607686    -0.67000
O1217       O  0.44470086  0.52508830  0.11697399    -0.54200
C1218       C  0.40913093  0.54153387  0.10450138     0.72900
Zr1219     Zr  0.43435649  0.54035981  0.49398732     2.77500
O1220       O  0.44292277  0.58879190  0.99324582    -0.97800
O1221       O  0.33768163  0.54739598  0.99627902    -0.78600
Zr1222     Zr  0.58757593  0.53972600  0.49851886     2.70100
O1223       O  0.57454784  0.58799683  0.49656256    -0.79900
O1224       O  0.67976942  0.54575846  0.00655264    -0.98900
Zr1225     Zr  0.50885761  0.99913782  0.07660720     2.21500
Zr1226     Zr  0.51188592  0.00092171  0.41523341     2.11100
O1227       O  0.51303073  0.54167389  0.45424519    -2.47600
O1228       O  0.50786709  0.54006828  0.03817994    -0.79700
O1229       O  0.43313553  0.00045923  0.45556178    -0.71800
O1230       O  0.58691569  0.00014608  0.03547571    -2.32800
O1231       O  0.43110799  0.99912604  0.03484797    -2.29000
O1232       O  0.58903874  0.00031867  0.45704569    -0.73600
H1233       H  0.51086140  0.94468729  0.43765875     0.78400
H1234       H  0.61782651  0.00019023  0.05267675     0.79500
H1235       H  0.51428472  0.55719059  0.43607128     0.81700
H1236       H  0.39992535  0.99868857  0.05206499     0.79300
H1237       H  0.69279294  0.97794203  0.98506816     0.42300
H1238       H  0.69873185  0.53516201  0.48766741     0.41300
H1239       H  0.57338549  0.59128947  0.96098586     0.41000
H1240       H  0.45266954  0.59287015  0.46076966     0.38900
H1241       H  0.32317698  0.53661897  0.49008998     0.42100
H1242       H  0.32471154  0.96715595  0.01576834     0.36800
H1243       H  0.46369577  0.90620494  0.97379068     0.43000
H1244       H  0.61576102  0.90535012  0.48653811     0.39400
H1245       H  0.42288821  0.59684049  0.50315111     0.44300
H1246       H  0.33025081  0.93710868  0.00226819     0.43000
H1247       H  0.59114549  0.90580312  0.02286959     0.43200
H1248       H  0.68736240  0.56563426  0.49614356     0.43500
O1249       O  0.91208045  0.80645671  0.07248706    -0.75400
O1250       O  0.95223683  0.78035849  0.12142218    -0.54300
C1251       C  0.92260795  0.80014998  0.11058103     0.78400
O1252       O  0.90262991  0.69452897  0.43095957    -0.60000
O1253       O  0.94853961  0.71771472  0.38096773    -0.53000
C1254       C  0.91564562  0.69941699  0.39255132     0.70400
O1255       O  0.90357345  0.69524722  0.07291984    -0.74500
O1256       O  0.94881420  0.71920008  0.12145209    -0.55100
C1257       C  0.91640151  0.70072683  0.11083008     0.76400
O1258       O  0.91699218  0.80808582  0.43189976    -0.59700
O1259       O  0.95329924  0.78215034  0.38082535    -0.52800
C1260       C  0.92542800  0.80209635  0.39353483     0.73000
Zr1261     Zr  0.93230358  0.78980423  0.00239121     2.54700
O1262       O  0.83687783  0.78853443  0.00353065    -0.80200
O1263       O  0.93024179  0.83912539  0.49718957    -0.93600
Zr1264     Zr  0.92405284  0.71087218  0.00179543     2.64700
O1265       O  0.82920634  0.71671385  0.00324146    -0.98600
O1266       O  0.91357628  0.66291435  0.50303178    -0.80700
O1267       O  0.92700729  0.75024530  0.04342882    -0.84000
O1268       O  0.92550442  0.75107704  0.45960449    -2.18700
O1269       O  0.10828605  0.80139373  0.42927382    -0.67400
O1270       O  0.06235541  0.77880036  0.37973855    -0.52000
C1271       C  0.09643877  0.79621954  0.39115066     0.71400
O1272       O  0.09900315  0.69123678  0.07189754    -0.60300
O1273       O  0.06173676  0.71833260  0.12103876    -0.52300
C1274       C  0.08961621  0.69801151  0.11009170     0.73200
O1275       O  0.09781002  0.69184552  0.43128680    -0.71700
O1276       O  0.05702511  0.71637211  0.38052020    -0.50400
C1277       C  0.08742594  0.69729550  0.39282701     0.74500
O1278       O  0.10878381  0.80332398  0.06898398    -0.67000
O1279       O  0.06460003  0.77970366  0.11932245    -0.54200
C1280       C  0.09673661  0.79828324  0.10746122     0.72900
Zr1281     Zr  0.08631117  0.78667382  0.50015477     2.77500
O1282       O  0.18037546  0.77830561  0.50189758    -0.97800
O1283       O  0.10652798  0.83357462  0.99608094    -0.78600
Zr1284     Zr  0.07935849  0.70806962  0.50180274     2.70100
O1285       O  0.17458851  0.71148512  0.50205284    -0.79900
O1286       O  0.08630602  0.65862469  0.00341121    -0.98900
Zr1287     Zr  0.00663563  0.74912113  0.08214099     2.21500
Zr1288     Zr  0.00473246  0.74887580  0.41918664     2.11100
O1289       O  0.08395250  0.74719962  0.45917108    -2.47600
O1290       O  0.08570302  0.74664030  0.04184277    -0.79700
O1291       O  0.00845894  0.78844175  0.46044049    -0.71800
O1292       O  0.00221904  0.70923495  0.04139746    -2.32800
O1293       O  0.01052572  0.78897359  0.04089662    -2.29000
O1294       O  0.00167002  0.70927753  0.46134190    -0.73600
H1295       H  0.89532695  0.75197228  0.44159384     0.78400
H1296       H  0.00125761  0.69347389  0.05912659     0.79500
H1297       H  0.11444932  0.74638120  0.44107093     0.81700
H1298       H  0.01164563  0.80486264  0.05784194     0.79300
H1299       H  0.95778940  0.65659540  0.00986788     0.42300
H1300       H  0.05807627  0.65334007  0.48278363     0.41300
H1301       H  0.18804832  0.69337281  0.00550209     0.41000
H1302       H  0.19611712  0.79400876  0.48750648     0.38900
H1303       H  0.06520030  0.84263911  0.49647344     0.42100
H1304       H  0.95488048  0.84441353  0.02155286     0.36800
H1305       H  0.82767882  0.78045820  0.03094327     0.43000
H1306       H  0.82090349  0.72775520  0.47549823     0.39400
H1307       H  0.19020446  0.78042657  0.53152616     0.44300
H1308       H  0.89715563  0.84410765  0.00478997     0.43000
H1309       H  0.81513484  0.69823712  0.00363048     0.43200
H1310       H  0.11828402  0.65467966  0.49216110     0.43500
C1311       C  0.25159626  0.62770408  0.20885587     0.45400
H1312       H  0.24666291  0.63104917  0.17500702    -0.03600
C1313       C  0.25568089  0.62046077  0.28821033     0.45400
H1314       H  0.25764688  0.61736478  0.32253184    -0.03600
C1315       C  0.28990742  0.64691742  0.22993846    -0.17300
C1316       C  0.19900131  0.63313286  0.23128229    -0.17100
C1317       C  0.27379576  0.59962975  0.22088779    -0.17500
C1318       C  0.29223928  0.64254728  0.27198331    -0.17400
C1319       C  0.20104172  0.62997979  0.27407591    -0.17000
C1320       C  0.27428959  0.59567393  0.26400424    -0.17300
C1321       C  0.76360742  0.61856933  0.20780776     0.45400
H1322       H  0.76649519  0.61872998  0.17316363    -0.03600
C1323       C  0.75876413  0.61819773  0.28792187     0.45400
H1324       H  0.75604412  0.61979004  0.32227685    -0.03600
C1325       C  0.71862816  0.63579361  0.22486060    -0.17300
C1326       C  0.75023257  0.59056391  0.22564239    -0.17100
C1327       C  0.81318945  0.63008037  0.22892108    -0.17500
C1328       C  0.71560102  0.63504172  0.26754688    -0.17400
C1329       C  0.75117012  0.58972774  0.26911756    -0.17000
C1330       C  0.81013539  0.63040209  0.27179331    -0.17300
C1331       C  0.27095087  0.86789584  0.20686519     0.45400
H1332       H  0.26780067  0.86983979  0.17241000    -0.03600
C1333       C  0.27941616  0.86345411  0.28664112     0.45400
H1334       H  0.28192387  0.86134675  0.32087579    -0.03600
C1335       C  0.31173884  0.84704389  0.22015225    -0.17300
C1336       C  0.29094301  0.89390404  0.22787871    -0.17100
C1337       C  0.21972952  0.85792979  0.22832381    -0.17500
C1338       C  0.31637480  0.84469399  0.26241246    -0.17400
C1339       C  0.29445752  0.89180628  0.27100159    -0.17000
C1340       C  0.22423801  0.85597914  0.27124147    -0.17300
C1341       C  0.73307790  0.86121246  0.28639275     0.45400
H1342       H  0.72288886  0.86010147  0.31977132    -0.03600
C1343       C  0.75042520  0.86630253  0.20748884     0.45400
H1344       H  0.75749788  0.86852641  0.17336970    -0.03600
C1345       C  0.70542608  0.83972598  0.26028050    -0.17300
C1346       C  0.71391353  0.88803693  0.26885635    -0.17100
C1347       C  0.79210031  0.85810868  0.27533077    -0.17500
C1348       C  0.71465144  0.84267476  0.21837824    -0.17400
C1349       C  0.72219399  0.89086768  0.22666937    -0.17000
C1350       C  0.80074290  0.85948000  0.23242577    -0.17300
C1351       C  0.14094684  0.80165978  0.17635512    -0.26400
C1352       C  0.12245955  0.81464574  0.14045948    -0.14500
C1353       C  0.13062033  0.84269550  0.13657024     0.36200
C1354       C  0.15886789  0.85652522  0.16724351    -0.25800
C1355       C  0.18026166  0.84321974  0.20203440    -0.15100
C1356       C  0.17082983  0.81528325  0.20620807     0.37300
N1357       N  0.19567766  0.79982250  0.23809614    -0.89300
H1358       H  0.13548892  0.78021365  0.17988029     0.18400
H1359       H  0.16590975  0.87779130  0.16300959     0.18400
N1360       N  0.11029008  0.85781807  0.10212278    -0.88400
H1361       H  0.21766981  0.78485008  0.22344157     0.35700
H1362       H  0.16639298  0.79029480  0.25569145     0.40800
H1363       H  0.06999670  0.85427460  0.10013998     0.40500
H1364       H  0.12857606  0.85138418  0.07472487     0.35300
C1365       C  0.21169005  0.82352110  0.33044019    -0.26400
C1366       C  0.18841677  0.84062823  0.30055216    -0.14500
C1367       C  0.13308859  0.84222853  0.29978474     0.36200
C1368       C  0.10289970  0.82685166  0.32840842    -0.25800
C1369       C  0.12717871  0.81052263  0.35865048    -0.15100
C1370       C  0.18210350  0.80885303  0.35945940     0.37300
N1371       N  0.20777962  0.79203329  0.38982178    -0.89300
H1372       H  0.25359315  0.82095920  0.33120869     0.18400
H1373       H  0.06054495  0.82838536  0.32793530     0.18400
N1374       N  0.10741313  0.85985840  0.27099038    -0.88400
H1375       H  0.24854700  0.79326495  0.38670095     0.35700
H1376       H  0.19768882  0.77218213  0.38352861     0.40800
H1377       H  0.08476128  0.87340542  0.28814798     0.40500
H1378       H  0.08195822  0.84841428  0.25296415     0.35300
C1379       C  0.19476498  0.66113688  0.33463997    -0.26400
C1380       C  0.16797100  0.64585456  0.30471394    -0.14500
C1381       C  0.11235277  0.64777692  0.30421325     0.36200
C1382       C  0.08662230  0.66564684  0.33176046    -0.25800
C1383       C  0.11463887  0.68071817  0.36111146    -0.15100
C1384       C  0.16947922  0.67839824  0.36191965     0.37300
N1385       N  0.20119115  0.69409000  0.38925007    -0.89300
H1386       H  0.23652559  0.66038194  0.33728098     0.18400
H1387       H  0.04441886  0.66706669  0.33118068     0.18400
N1388       N  0.08063005  0.63107553  0.27830190    -0.88400
H1389       H  0.19279990  0.68878136  0.42014593     0.35700
H1390       H  0.19223952  0.71435459  0.38461891     0.40800
H1391       H  0.10327745  0.61702277  0.26227913     0.40500
H1392       H  0.06239183  0.64340424  0.25620694     0.35300
C1393       C  0.13840287  0.63745832  0.17177899    -0.26400
C1394       C  0.16023549  0.64942572  0.20708616    -0.14500
C1395       C  0.15578730  0.67754198  0.21144700     0.36200
C1396       C  0.13068469  0.69290568  0.18041167    -0.25800
C1397       C  0.11190956  0.68099089  0.14391294    -0.15100
C1398       C  0.11479666  0.65288797  0.14021527     0.37300
N1399       N  0.09401481  0.63987770  0.10428203    -0.89300
H1400       H  0.14245625  0.61602314  0.16749020     0.18400
H1401       H  0.12860136  0.71448130  0.18382803     0.18400
N1402       N  0.17984447  0.69096017  0.24556750    -0.88400
H1403       H  0.06563854  0.62615570  0.11440161     0.35700
H1404       H  0.12439541  0.62917820  0.08994734     0.40800
H1405       H  0.15055857  0.70129693  0.26185279     0.40500
H1406       H  0.20571048  0.70521084  0.23319137     0.35300
C1407       C  0.89954456  0.65543556  0.14012015    -0.26400
C1408       C  0.89417439  0.68329081  0.14416863    -0.14500
C1409       C  0.86713943  0.69353107  0.17924531     0.36200
C1410       C  0.84404476  0.67580195  0.20814615    -0.25800
C1411       C  0.84811165  0.64784445  0.20345533    -0.15100
C1412       C  0.87744950  0.63765428  0.16940068     0.37300
N1413       N  0.88591716  0.60945318  0.16360077    -0.89300
H1414       H  0.92117041  0.64736317  0.11378989     0.18400
H1415       H  0.82018380  0.68399534  0.23307816     0.18400
N1416       N  0.86011471  0.72173556  0.18513014    -0.88400
H1417       H  0.86569674  0.60378584  0.13684196     0.35700
H1418       H  0.87119404  0.59824187  0.18865505     0.40800
H1419       H  0.84189747  0.72975281  0.15869076     0.40500
H1420       H  0.89699434  0.73055469  0.18807631     0.35300
C1421       C  0.91851010  0.66280055  0.33830539    -0.26400
C1422       C  0.89014836  0.68288263  0.35951795    -0.14500
C1423       C  0.83655088  0.68611321  0.35014044     0.36200
C1424       C  0.81259151  0.66935054  0.32094771    -0.25800
C1425       C  0.84038431  0.64904930  0.29984475    -0.15100
C1426       C  0.89436039  0.64596829  0.30873573     0.37300
N1427       N  0.92495124  0.62524230  0.28970302    -0.89300
H1428       H  0.95918768  0.65952037  0.34591376     0.18400
H1429       H  0.77143103  0.67223211  0.31497715     0.18400
N1430       N  0.80537621  0.70640647  0.36977423    -0.88400
H1431       H  0.92477854  0.62825614  0.25741614     0.35700
H1432       H  0.90706676  0.60683808  0.29628046     0.40800
H1433       H  0.82266158  0.72503071  0.36369549     0.40500
H1434       H  0.80547416  0.70301371  0.40199549     0.35300
C1435       C  0.91720218  0.83314949  0.33104921    -0.26400
C1436       C  0.89445216  0.81782161  0.36340352    -0.14500
C1437       C  0.84019098  0.81912386  0.37018003     0.36200
C1438       C  0.80928517  0.83421138  0.34333359    -0.25800
C1439       C  0.82996665  0.84759740  0.30793166    -0.15100
C1440       C  0.88544430  0.84878236  0.30390998     0.37300
N1441       N  0.90928102  0.86584198  0.27290543    -0.89300
H1442       H  0.95944758  0.83329356  0.32747299     0.18400
H1443       H  0.76824281  0.83358944  0.35018684     0.18400
N1444       N  0.81627047  0.80456968  0.40439430    -0.88400
H1445       H  0.95013916  0.86450444  0.27432975     0.35700
H1446       H  0.89928733  0.88561054  0.28012186     0.40800
H1447       H  0.82200570  0.78411215  0.39916377     0.40500
H1448       H  0.77576465  0.80773500  0.40568767     0.35300
C1449       C  0.86453796  0.85833794  0.17339255    -0.26400
C1450       C  0.84306601  0.84491082  0.20822989    -0.14500
C1451       C  0.85242270  0.81675168  0.21171673     0.36200
C1452       C  0.87965427  0.80316478  0.18022623    -0.25800
C1453       C  0.89793364  0.81638040  0.14436123    -0.15100
C1454       C  0.89114545  0.84454681  0.14154250     0.37300
N1455       N  0.91027253  0.85978399  0.10662004    -0.89300
H1456       H  0.85764860  0.87966222  0.16956205     0.18400
H1457       H  0.88458148  0.78165163  0.18312816     0.18400
N1458       N  0.83171164  0.80059601  0.24479385    -0.88400
H1459       H  0.88996021  0.85402950  0.08000898     0.35700
H1460       H  0.95021026  0.85570807  0.10261117     0.40800
H1461       H  0.79343660  0.80653784  0.25028440     0.40500
H1462       H  0.85407184  0.80322601  0.27145250     0.35300
C1463       C  0.74196139  0.57144082  0.34135644    -0.26400
C1464       C  0.73251651  0.56769164  0.29866493    -0.14500
C1465       C  0.69600951  0.54745553  0.28868964     0.36200
C1466       C  0.65709450  0.54057510  0.31819762    -0.25800
C1467       C  0.66020655  0.54912474  0.35993355    -0.15100
C1468       C  0.70544158  0.56351360  0.37173585     0.37300
N1469       N  0.71411412  0.57111640  0.41411814    -0.89300
H1470       H  0.77587511  0.58264081  0.35133841     0.18400
H1471       H  0.62680429  0.52663175  0.30921994     0.18400
N1472       N  0.70576019  0.52885189  0.25558624    -0.88400
H1473       H  0.71685846  0.59201116  0.41519603     0.35700
H1474       H  0.75004644  0.56307542  0.42355678     0.40800
H1475       H  0.74100038  0.53300074  0.24008149     0.40500
H1476       H  0.67435284  0.52883769  0.23491693     0.35300
C1477       C  0.65895921  0.57668480  0.20500497    -0.26400
C1478       C  0.71367322  0.57467299  0.19856856    -0.14500
C1479       C  0.73182143  0.56182663  0.16192183     0.36200
C1480       C  0.69571752  0.55208438  0.13278079    -0.25800
C1481       C  0.64125376  0.55382374  0.13933969    -0.15100
C1482       C  0.62268999  0.56563878  0.17660126     0.37300
N1483       N  0.56729774  0.56723928  0.18485405    -0.89300
H1484       H  0.64461070  0.58673852  0.23264022     0.18400
H1485       H  0.71060812  0.54258033  0.10477547     0.18400
N1486       N  0.78663076  0.55786620  0.15343860    -0.88400
H1487       H  0.56024993  0.57686347  0.21319461     0.35700
H1488       H  0.55356919  0.54769004  0.18915094     0.40800
H1489       H  0.80970158  0.56380038  0.17843579     0.40500
H1490       H  0.79662216  0.56984070  0.12769357     0.35300
C1491       C  0.36465404  0.58168880  0.12845764    -0.26400
C1492       C  0.37520223  0.55481114  0.13564674    -0.14500
C1493       C  0.35120621  0.54172583  0.16998760     0.36200
C1494       C  0.31651514  0.55629380  0.19615100    -0.25800
C1495       C  0.30741546  0.58402203  0.19002052    -0.15100
C1496       C  0.33249094  0.59644138  0.15479537     0.37300
N1497       N  0.32755846  0.62423737  0.14481321    -0.89300
H1498       H  0.38298226  0.59190664  0.10212471     0.18400
H1499       H  0.29684895  0.54591126  0.22155041     0.18400
N1500       N  0.36147630  0.51383182  0.17787272    -0.88400
H1501       H  0.36517488  0.63240910  0.14251198     0.35700
H1502       H  0.31034763  0.62600829  0.11538510     0.40800
H1503       H  0.34687238  0.50305057  0.15270263     0.40500
H1504       H  0.34092874  0.50727825  0.20437949     0.35300
C1505       C  0.36260499  0.57580239  0.28246399    -0.26400
C1506       C  0.30784608  0.57628418  0.28895318    -0.14500
C1507       C  0.28810165  0.56443729  0.32642011     0.36200
C1508       C  0.32280486  0.55372457  0.35633896    -0.25800
C1509       C  0.37750847  0.55396612  0.35045463    -0.15100
C1510       C  0.39721828  0.56493159  0.31239495     0.37300
N1511       N  0.45235143  0.56720133  0.30441495    -0.89300
H1512       H  0.37919478  0.58598575  0.25548536     0.18400
H1513       H  0.30655731  0.54516718  0.38480152     0.18400
N1514       N  0.23288088  0.56337760  0.33567624    -0.88400
H1515       H  0.46857129  0.54799353  0.30297591     0.35700
H1516       H  0.46945383  0.57761810  0.32900450     0.40800
H1517       H  0.21041770  0.57023698  0.31065883     0.40500
H1518       H  0.22549707  0.57600156  0.36096041     0.35300
C1519       C  0.61169907  0.92838645  0.16992157    -0.26400
C1520       C  0.63891682  0.94086135  0.13702323    -0.14500
C1521       C  0.69431534  0.93866283  0.13568487     0.36200
C1522       C  0.72070170  0.92365755  0.16682104    -0.25800
C1523       C  0.69318909  0.91029725  0.19891343    -0.15100
C1524       C  0.63778946  0.91255188  0.19977760     0.37300
N1525       N  0.60706313  0.89725200  0.22881979    -0.89300
H1526       H  0.56925031  0.92946272  0.17096995     0.18400
H1527       H  0.76297937  0.92164630  0.16528850     0.18400
N1528       N  0.72376772  0.95191909  0.10317779    -0.88400
H1529       H  0.58164027  0.88517011  0.21181121     0.35700
H1530       H  0.58404038  0.91060456  0.24606251     0.40800
H1531       H  0.71658448  0.94187133  0.07532865     0.40500
H1532       H  0.76399275  0.94996698  0.10850619     0.35300
C1533       C  0.61828270  0.91314320  0.35143601    -0.26400
C1534       C  0.63367125  0.93973008  0.35591808    -0.14500
C1535       C  0.67365377  0.95027122  0.32956756     0.36200
C1536       C  0.69787763  0.93348484  0.29993530    -0.25800
C1537       C  0.68312753  0.90653532  0.29622613    -0.15100
C1538       C  0.64208307  0.89661690  0.32193297     0.37300
N1539       N  0.62328969  0.86982323  0.31768606    -0.89300
H1540       H  0.58713859  0.90506649  0.37102145     0.18400
H1541       H  0.72956269  0.94128818  0.28071150     0.18400
N1542       N  0.69206025  0.97732019  0.33296794    -0.88400
H1543       H  0.58329459  0.87071918  0.31085075     0.35700
H1544       H  0.62740422  0.85997030  0.34641132     0.40800
H1545       H  0.67182911  0.98771807  0.35618732     0.40500
H1546       H  0.68409963  0.98693708  0.30464675     0.35300
C1547       C  0.35325323  0.89862971  0.33292789    -0.26400
C1548       C  0.32439442  0.91032005  0.30001505    -0.14500
C1549       C  0.32584697  0.93868038  0.29628084     0.36200
C1550       C  0.35721707  0.95395916  0.32377480    -0.25800
C1551       C  0.38593469  0.94146124  0.35590296    -0.15100
C1552       C  0.38361344  0.91357274  0.36009176     0.37300
N1553       N  0.41299234  0.90009978  0.39200736    -0.89300
H1554       H  0.35332208  0.87748163  0.33869880     0.18300
H1555       H  0.35764170  0.97560976  0.32088794     0.18400
N1556       N  0.29414168  0.95218471  0.26603868    -0.88400
H1557       H  0.43932533  0.88705129  0.37749220     0.35700
H1558       H  0.38703632  0.88875289  0.41032171     0.40800
H1559       H  0.26883946  0.96518018  0.28187518     0.40500
H1560       H  0.31882161  0.96380967  0.24705102     0.35300
C1561       C  0.40515024  0.93070276  0.17389061    -0.26400
C1562       C  0.38044202  0.94120252  0.13836379    -0.14500
C1563       C  0.32552017  0.93831398  0.13466856     0.36200
C1564       C  0.29704304  0.92433989  0.16584633    -0.25800
C1565       C  0.32196237  0.91287239  0.20064898    -0.15100
C1566       C  0.37698807  0.91592379  0.20417025     0.37300
N1567       N  0.40528871  0.90278186  0.23687585    -0.89300
H1568       H  0.44728948  0.93251252  0.17693139     0.18400
H1569       H  0.25516263  0.92163416  0.16236764     0.18400
N1570       N  0.29884784  0.94934129  0.09907233    -0.88400
H1571       H  0.43377795  0.89052300  0.22321760     0.35700
H1572       H  0.42492387  0.91744854  0.25382118     0.40800
H1573       H  0.30264575  0.97017958  0.10010678     0.40500
H1574       H  0.25871198  0.94524264  0.10081061     0.35300
C1575       C  0.36498211  0.78589734  0.32446189    -0.26400
C1576       C  0.40375293  0.79858960  0.34763410    -0.14500
C1577       C  0.42195158  0.82410068  0.33552874     0.36200
C1578       C  0.39699071  0.83766620  0.30313303    -0.25800
C1579       C  0.35289484  0.82660031  0.28419241    -0.15100
C1580       C  0.33947124  0.79978526  0.29249937     0.37300
N1581       N  0.29910612  0.78688613  0.26954184    -0.89300
H1582       H  0.35300068  0.76566084  0.33232259     0.18400
H1583       H  0.41018056  0.85754433  0.29434045     0.18400
N1584       N  0.46512592  0.83664655  0.35591692    -0.88400
H1585       H  0.27117607  0.77965509  0.29083725     0.35700
H1586       H  0.31568127  0.77033227  0.25455974     0.40800
H1587       H  0.49773660  0.82401555  0.35368914     0.40500
H1588       H  0.45561857  0.83887489  0.38746921     0.35300
C1589       C  0.35395553  0.80811669  0.12557646    -0.26400
C1590       C  0.40841973  0.80941287  0.12869314    -0.14500
C1591       C  0.43195962  0.82260414  0.16224797     0.36200
C1592       C  0.39959331  0.83434673  0.19256404    -0.25800
C1593       C  0.34475739  0.83288412  0.18957869    -0.15100
C1594       C  0.32199443  0.81964497  0.15570342     0.37300
N1595       N  0.26645578  0.81735778  0.15193801    -0.89300
H1596       H  0.33598998  0.79760941  0.09985368     0.18400
H1597       H  0.41718763  0.84503064  0.21803025     0.18400
N1598       N  0.48801401  0.82510395  0.16428351    -0.88400
H1599       H  0.25539324  0.82618567  0.12362601     0.35700
H1600       H  0.25708286  0.79698470  0.15074137     0.40800
H1601       H  0.50356989  0.80603785  0.16991570     0.40500
H1602       H  0.49856481  0.83691063  0.18967950     0.35300
C1603       C  0.70613302  0.80008787  0.30644288    -0.26400
C1604       C  0.67687813  0.81724956  0.28065163    -0.14500
C1605       C  0.62169458  0.81422036  0.27938968     0.36200
C1606       C  0.59745667  0.79706868  0.30839699    -0.25800
C1607       C  0.62721695  0.78310699  0.33810150    -0.15100
C1608       C  0.68194120  0.78299302  0.33518045     0.37300
N1609       N  0.71255460  0.76614096  0.36233252    -0.89300
H1610       H  0.74814234  0.80055308  0.30558538     0.18400
H1611       H  0.55503079  0.79624101  0.30973307     0.18400
N1612       N  0.58876532  0.82940687  0.25178106    -0.88400
H1613       H  0.75244982  0.76806001  0.35532795     0.35700
H1614       H  0.70283538  0.74625866  0.35588609     0.40800
H1615       H  0.61055472  0.84250162  0.23323337     0.40500
H1616       H  0.57101543  0.81583310  0.23165368     0.35300
C1617       C  0.67056699  0.78504140  0.15109529    -0.26400
C1618       C  0.64482510  0.79931601  0.11972621    -0.14500
C1619       C  0.64275971  0.82742269  0.12009402     0.36200
C1620       C  0.66579546  0.84086092  0.15316493    -0.25800
C1621       C  0.69119692  0.82668175  0.18513948    -0.15100
C1622       C  0.69454960  0.79849870  0.18361411     0.37300
N1623       N  0.72282012  0.78336775  0.21408872    -0.89300
H1624       H  0.67203140  0.76331605  0.15028308     0.18400
H1625       H  0.66325448  0.86250441  0.15429840     0.18400
N1626       N  0.61519988  0.84202530  0.08813778    -0.88400
H1627       H  0.69707713  0.76952811  0.22778733     0.35700
H1628       H  0.75224124  0.77257969  0.19866307     0.40800
H1629       H  0.63620001  0.83980703  0.06024060     0.40500
H1630       H  0.61502411  0.86254360  0.09455181     0.35300
C1631       C  0.65122394  0.63144405  0.32464597    -0.26400
C1632       C  0.67547111  0.64759727  0.29406125    -0.14500
C1633       C  0.66579915  0.67531703  0.29295758     0.36200
C1634       C  0.63265905  0.68647982  0.32296310    -0.25800
C1635       C  0.61152596  0.67055045  0.35519696    -0.15100
C1636       C  0.62017191  0.64280208  0.35582116     0.37300
N1637       N  0.59810129  0.62627131  0.38820383    -0.89300
H1638       H  0.65803905  0.61002290  0.32522469     0.18400
H1639       H  0.62648688  0.70799348  0.32279750     0.18400
N1640       N  0.69204855  0.69236578  0.26335441    -0.88400
H1641       H  0.62886408  0.61652484  0.40351331     0.35700
H1642       H  0.57494503  0.61164517  0.37422618     0.40800
H1643       H  0.71371960  0.70652661  0.27977049     0.40500
H1644       H  0.66354291  0.70266049  0.24623647     0.35300
C1645       C  0.71041148  0.66599248  0.16453319    -0.26400
C1646       C  0.68497235  0.65147848  0.19628638    -0.14500
C1647       C  0.62966100  0.65170158  0.19856106     0.36200
C1648       C  0.60125517  0.66670912  0.16935196    -0.25800
C1649       C  0.62708822  0.68044217  0.13704812    -0.15100
C1650       C  0.68243647  0.68050119  0.13490300     0.37300
N1651       N  0.71169057  0.69487032  0.10330843    -0.89300
H1652       H  0.75276601  0.66615051  0.16254947     0.18400
H1653       H  0.55875911  0.66644839  0.17056831     0.18400
N1654       N  0.60191300  0.63584765  0.22879720    -0.88400
H1655       H  0.73565314  0.70864059  0.11847735     0.35700
H1656       H  0.68750018  0.70629033  0.08404466     0.40800
H1657       H  0.57830756  0.64870238  0.24646440     0.40500
H1658       H  0.57696294  0.62302761  0.21275682     0.35300
C1659       C  0.34868909  0.69630811  0.33828788    -0.26400
C1660       C  0.37509312  0.68040522  0.36739984    -0.14500
C1661       C  0.37851482  0.65242936  0.36304876     0.36200
C1662       C  0.35320087  0.64090683  0.32980213    -0.25800
C1663       C  0.32555092  0.65660458  0.30102325    -0.15100
C1664       C  0.32323744  0.68456190  0.30511670     0.37300
N1665       N  0.29258199  0.70082929  0.27757087    -0.89300
H1666       H  0.34709557  0.71787296  0.34183887     0.18400
H1667       H  0.35434131  0.61941833  0.32710210     0.18400
N1668       N  0.40715375  0.63519809  0.39111472    -0.88400
H1669       H  0.26468798  0.71106627  0.29549100     0.35700
H1670       H  0.31734657  0.71506921  0.26372946     0.40800
H1671       H  0.42571227  0.64583517  0.41461344     0.40500
H1672       H  0.43695256  0.62590218  0.37388619     0.35300
C1673       C  0.40679808  0.68125203  0.17839338    -0.26400
C1674       C  0.38136227  0.69612163  0.14719485    -0.14500
C1675       C  0.32630926  0.69786880  0.14751323     0.36200
C1676       C  0.29733573  0.68299037  0.17673210    -0.25800
C1677       C  0.32237183  0.66638584  0.20591422    -0.15100
C1678       C  0.37774217  0.66592508  0.20730775     0.37300
N1679       N  0.40452175  0.64780843  0.23475816    -0.89300
H1680       H  0.44918247  0.67961004  0.17802721     0.18400
H1681       H  0.25501622  0.68342256  0.17518282     0.18400
N1682       N  0.29970872  0.71429475  0.11747672    -0.88400
H1683       H  0.43013776  0.65897774  0.25303567     0.35700
H1684       H  0.42691601  0.63466073  0.21663209     0.40800
H1685       H  0.27685778  0.72825988  0.13366203     0.40500
H1686       H  0.27447548  0.70206686  0.10054068     0.35300
O1687       O  0.39536287  0.69944266  0.57610203    -0.75400
O1688       O  0.45407302  0.71929108  0.61931964    -0.54300
C1689       C  0.41228775  0.70572272  0.61238436     0.78400
O1690       O  0.59765412  0.67853300  0.92677299    -0.60000
O1691       O  0.55606166  0.70438456  0.87820835    -0.53000
C1692       C  0.58760472  0.68577006  0.88904495     0.70400
O1693       O  0.60826120  0.68481764  0.56678978    -0.74500
O1694       O  0.56801684  0.71241773  0.61377347    -0.55100
C1695       C  0.60006109  0.69370708  0.60375678     0.76400
O1696       O  0.39008698  0.69239378  0.93405116    -0.59700
O1697       O  0.44173550  0.71032626  0.88249044    -0.52800
C1698       C  0.40379690  0.69603632  0.89581645     0.73000
Zr1699     Zr  0.42253790  0.70431410  0.50372116     2.54700
O1700       O  0.41559300  0.65580384  0.51076176    -0.80200
O1701       O  0.32696695  0.71931379  0.00283136    -0.93600
Zr1702     Zr  0.57630355  0.69317211  0.49697710     2.64700
O1703       O  0.55379443  0.64605976  0.50557854    -0.98600
O1704       O  0.66438440  0.67843918  0.99551722    -0.80700
O1705       O  0.50204690  0.69968976  0.54085566    -0.84000
O1706       O  0.49375986  0.69691282  0.95969574    -2.18700
O1707       O  0.42163996  0.79584101  0.91838649    -0.67400
O1708       O  0.45591238  0.76496745  0.87368383    -0.52000
C1709       C  0.42902201  0.78589174  0.88188955     0.71400
O1710       O  0.62736538  0.78876913  0.55066088    -0.60300
O1711       O  0.58072017  0.76916623  0.60383406    -0.52300
C1712       C  0.61622029  0.78485077  0.58931680     0.73200
O1713       O  0.62484961  0.77583359  0.91101896    -0.71700
O1714       O  0.56282225  0.75773358  0.86906117    -0.50400
C1715       C  0.60501996  0.77075057  0.87508852     0.74500
O1716       O  0.42310192  0.79953170  0.56031920    -0.67000
O1717       O  0.46877472  0.77638497  0.60995652    -0.54200
C1718       C  0.43592524  0.79432742  0.59820154     0.72900
Zr1719     Zr  0.44699323  0.78526968  0.98985928     2.77500
O1720       O  0.45636742  0.83153085  0.48708554    -0.97800
O1721       O  0.35314509  0.79431615  0.99110229    -0.78600
Zr1722     Zr  0.60078223  0.77060008  0.98452335     2.70100
O1723       O  0.62355567  0.81732685  0.97193015    -0.79900
O1724       O  0.69168026  0.76356715  0.48076852    -0.98900
Zr1725     Zr  0.51489117  0.74201405  0.57244700     2.21500
Zr1726     Zr  0.50576537  0.73562568  0.91700858     2.11100
O1727       O  0.52190723  0.77761938  0.94789364    -2.47600
O1728       O  0.52317258  0.78010890  0.52768016    -0.79700
O1729       O  0.42890829  0.74435365  0.95630767    -0.71800
O1730       O  0.59081710  0.73472704  0.53027303    -2.32800
O1731       O  0.43389896  0.74595844  0.53687241    -2.29000
O1732       O  0.58651546  0.72933423  0.95141292    -0.73600
H1733       H  0.48824972  0.68105485  0.94323788     0.78400
H1734       H  0.62215915  0.73388943  0.54697921     0.79500
H1735       H  0.52585677  0.79177336  0.92746460     0.81700
H1736       H  0.40506642  0.74897301  0.55595330     0.79300
H1737       H  0.68739506  0.69781934  0.50211641     0.42300
H1738       H  0.70161280  0.75113209  0.95986320     0.41300
H1739       H  0.58228732  0.82852702  0.48772466     0.41000
H1740       H  0.43318176  0.84141733  0.97606007     0.38900
H1741       H  0.33848348  0.78099067  0.01104002     0.42100
H1742       H  0.31972159  0.72333272  0.52334248     0.36800
H1743       H  0.42345948  0.65195437  0.54041689     0.43000
H1744       H  0.52169855  0.64474291  0.02558431     0.39400
H1745       H  0.47230881  0.83896802  0.01339410     0.44300
H1746       H  0.31496613  0.69209416  0.52019084     0.43000
H1747       H  0.52919463  0.64218516  0.48266715     0.43200
H1748       H  0.71189459  0.77677074  0.98645446     0.43500
O1749       O  0.39760487  0.95023328  0.56676547    -0.75400
O1750       O  0.44782332  0.97008010  0.61633675    -0.54300
C1751       C  0.40936256  0.95507481  0.60510435     0.78400
O1752       O  0.61686734  0.94942887  0.92507646    -0.60000
O1753       O  0.56946285  0.97186656  0.87548706    -0.53000
C1754       C  0.60524738  0.95529822  0.88706138     0.70400
O1755       O  0.61937041  0.94927006  0.56748920    -0.74500
O1756       O  0.56807207  0.96978576  0.61655806    -0.55100
C1757       C  0.60640586  0.95433981  0.60560733     0.76400
O1758       O  0.40314946  0.94980232  0.92515452    -0.59700
O1759       O  0.44784489  0.97320170  0.87473553    -0.52800
C1760       C  0.41260981  0.95632344  0.88681177     0.73000
Zr1761     Zr  0.43271542  0.96068444  0.49670095     2.54700
O1762       O  0.43998710  0.91205229  0.49986444    -0.80200
O1763       O  0.33792895  0.95566845  0.99293570    -0.93600
Zr1764     Zr  0.58763165  0.96024782  0.49725612     2.64700
O1765       O  0.58130626  0.91153539  0.49722745    -0.98600
O1766       O  0.68260050  0.95928206  0.99203643    -0.80700
O1767       O  0.50945073  0.95911234  0.53832758    -0.84000
O1768       O  0.51043746  0.95971503  0.95389852    -2.18700
O1769       O  0.39737486  0.54800263  0.92332436    -0.67400
O1770       O  0.45166540  0.52946981  0.87465801    -0.52000
C1771       C  0.41107020  0.54337915  0.88498303     0.71400
O1772       O  0.61839514  0.54840582  0.56931525    -0.60300
O1773       O  0.56759436  0.52701353  0.61802746    -0.52300
C1774       C  0.60618163  0.54239161  0.60735231     0.73200
O1775       O  0.62551720  0.54412202  0.92845182    -0.71700
O1776       O  0.57694509  0.52561389  0.87705570    -0.50400
C1777       C  0.61723048  0.53864620  0.88989967     0.74500
O1778       O  0.40040494  0.54776967  0.56458447    -0.67000
O1779       O  0.44336095  0.52453169  0.61579344    -0.54200
C1780       C  0.40764629  0.54082934  0.60304272     0.72900
Zr1781     Zr  0.43207838  0.54026395  0.99476469     2.77500
O1782       O  0.45415734  0.58809209  0.49080525    -0.97800
O1783       O  0.34243159  0.55349598  0.49498844    -0.78600
Zr1784     Zr  0.58591089  0.53938467  0.99756937     2.70100
O1785       O  0.57502295  0.58770404  0.99138406    -0.79900
O1786       O  0.68109774  0.54740636  0.50749786    -0.98900
Zr1787     Zr  0.50838975  0.99941860  0.57813997     2.21500
Zr1788     Zr  0.50969442  0.00051714  0.91368193     2.11100
O1789       O  0.51034527  0.54115778  0.95436271    -2.47600
O1790       O  0.50894408  0.54002931  0.53849477    -0.79700
O1791       O  0.43121527  0.99899653  0.95431930    -0.71800
O1792       O  0.58723755  0.99975711  0.53752394    -2.32800
O1793       O  0.43128535  0.00047454  0.53589406    -2.29000
O1794       O  0.58666075  0.00075035  0.95565338    -0.73600
H1795       H  0.51089525  0.94429980  0.93584020     0.78400
H1796       H  0.61782941  0.99954129  0.55504323     0.79500
H1797       H  0.51132810  0.55654721  0.93591842     0.81700
H1798       H  0.39979197  0.00035717  0.55279309     0.79300
H1799       H  0.69364918  0.97479375  0.48041627     0.42300
H1800       H  0.69675676  0.53367528  0.98613547     0.41300
H1801       H  0.58195949  0.59314659  0.46722310     0.41000
H1802       H  0.47099707  0.59240654  0.01358893     0.38900
H1803       H  0.32280360  0.52918191  0.99953819     0.42100
H1804       H  0.32456649  0.97342428  0.50824889     0.36800
H1805       H  0.40418236  0.90553617  0.49395819     0.43000
H1806       H  0.60224401  0.90536142  0.97477161     0.39400
H1807       H  0.45881257  0.59297111  0.96567521     0.44300
H1808       H  0.32730250  0.94208948  0.50576210     0.43000
H1809       H  0.58106927  0.90619138  0.52705311     0.43200
H1810       H  0.68678724  0.56410499  0.99599258     0.43500
O1811       O  0.91027974  0.80752853  0.57149020    -0.75400
O1812       O  0.95077639  0.78150585  0.62042815    -0.54300
C1813       C  0.92129626  0.80135190  0.60962592     0.78400
O1814       O  0.90083844  0.69505507  0.93146013    -0.60000
O1815       O  0.94707754  0.71783731  0.88124139    -0.53000
C1816       C  0.91361307  0.69992199  0.89301696     0.70400
O1817       O  0.90352626  0.69487172  0.57233550    -0.74500
O1818       O  0.94605296  0.71983835  0.62109586    -0.55100
C1819       C  0.91509868  0.70074621  0.61039320     0.76400
O1820       O  0.91588068  0.80731635  0.93344326    -0.59700
O1821       O  0.95174585  0.78162350  0.88191253    -0.52800
C1822       C  0.92385954  0.80144038  0.89502220     0.73000
Zr1823     Zr  0.93082188  0.79037611  0.50135291     2.54700
O1824       O  0.83553361  0.78802715  0.49899569    -0.80200
O1825       O  0.93339876  0.83852855  0.99773527    -0.93600
Zr1826     Zr  0.92317991  0.71142732  0.50131126     2.64700
O1827       O  0.82906722  0.71981190  0.50311117    -0.98600
O1828       O  0.92164814  0.66210173  0.00255172    -0.80700
O1829       O  0.92510374  0.75087951  0.54280317    -0.84000
O1830       O  0.92568877  0.75065629  0.96054555    -2.18700
O1831       O  0.10574740  0.80124008  0.92803042    -0.67400
O1832       O  0.05978989  0.77840389  0.87875604    -0.52000
C1833       C  0.09326089  0.79613793  0.88996163     0.71400
O1834       O  0.09607852  0.69129591  0.57304001    -0.60300
O1835       O  0.05680506  0.71791460  0.62185484    -0.52300
C1836       C  0.08502553  0.69763210  0.61115530     0.73200
O1837       O  0.09521539  0.69052346  0.93019842    -0.71700
O1838       O  0.05547587  0.71573800  0.87975078    -0.50400
C1839       C  0.08503729  0.69623632  0.89180675     0.74500
O1840       O  0.10580535  0.80406779  0.56967058    -0.67000
O1841       O  0.06221987  0.77986666  0.61963808    -0.54200
C1842       C  0.09377933  0.79873202  0.60798325     0.72900
Zr1843     Zr  0.08771107  0.78583166  0.99947342     2.77500
O1844       O  0.18082388  0.77494475  0.99942095    -0.97800
O1845       O  0.10088339  0.83479935  0.49591184    -0.78600
Zr1846     Zr  0.07978981  0.70734622  0.00078301     2.70100
O1847       O  0.17483752  0.71148933  0.99831046    -0.79900
O1848       O  0.08347884  0.65930080  0.50398405    -0.98900
Zr1849     Zr  0.00439526  0.74961065  0.58200274     2.21500
Zr1850     Zr  0.00414242  0.74835503  0.91924956     2.11100
O1851       O  0.08417810  0.74648955  0.95816709    -2.47600
O1852       O  0.08437057  0.74747818  0.54270692    -0.79700
O1853       O  0.00916332  0.78779702  0.96067206    -0.71800
O1854       O  0.00095093  0.70980127  0.54125277    -2.32800
O1855       O  0.00843471  0.78947851  0.54068318    -2.29000
O1856       O  0.00161425  0.70863154  0.96098712    -0.73600
H1857       H  0.89506839  0.75165301  0.94300942     0.78400
H1858       H  0.99972974  0.69397892  0.55882923     0.79500
H1859       H  0.11425119  0.74563617  0.93966348     0.81700
H1860       H  0.00928981  0.80537684  0.55763342     0.79300
H1861       H  0.94979255  0.65600701  0.49973022     0.42300
H1862       H  0.06046119  0.65221807  0.98287869     0.41300
H1863       H  0.18711955  0.69269825  0.50317395     0.41000
H1864       H  0.19850098  0.79228732  0.99405465     0.38900
H1865       H  0.07180568  0.84228261  0.99913150     0.42100
H1866       H  0.95422060  0.84503096  0.51944611     0.36800
H1867       H  0.82494489  0.78187424  0.52726258     0.43000
H1868       H  0.82027461  0.72381003  0.97522923     0.39400
H1869       H  0.18887736  0.77063521  0.02891680     0.44300
H1870       H  0.89480909  0.84444875  0.50685372     0.43000
H1871       H  0.81312830  0.70175137  0.50245277     0.43200
H1872       H  0.12091188  0.65438131  0.99086566     0.43500
C1873       C  0.25016982  0.62701462  0.70809783     0.45400
H1874       H  0.24531487  0.63032277  0.67422109    -0.03600
C1875       C  0.25452474  0.61997894  0.78755414     0.45400
H1876       H  0.25659518  0.61687570  0.82187616    -0.03600
C1877       C  0.28796222  0.64649778  0.72921044    -0.17300
C1878       C  0.19733978  0.63219659  0.73043314    -0.17100
C1879       C  0.27315745  0.59907754  0.72031879    -0.17500
C1880       C  0.29042707  0.64235658  0.77130604    -0.17400
C1881       C  0.19958863  0.62909301  0.77329025    -0.17000
C1882       C  0.27374638  0.59525793  0.76344815    -0.17300
C1883       C  0.76447965  0.61888045  0.70803238     0.45400
H1884       H  0.76779318  0.61916975  0.67340625    -0.03600
C1885       C  0.75808675  0.61823695  0.78811645     0.45400
H1886       H  0.75466867  0.61960812  0.82246621    -0.03600
C1887       C  0.72003937  0.63647528  0.72475288    -0.17300
C1888       C  0.74978191  0.59096023  0.72563988    -0.17100
C1889       C  0.81397980  0.62997303  0.72972957    -0.17500
C1890       C  0.71619392  0.63565357  0.76729807    -0.17400
C1891       C  0.74970440  0.58991652  0.76904167    -0.17000
C1892       C  0.81005963  0.63018569  0.77262129    -0.17300
C1893       C  0.26822439  0.86802329  0.70679681     0.45400
H1894       H  0.26541320  0.86982436  0.67230476    -0.03600
C1895       C  0.27569788  0.86378953  0.78669629     0.45400
H1896       H  0.27804297  0.86188510  0.82102192    -0.03600
C1897       C  0.30908490  0.84725714  0.72055326    -0.17300
C1898       C  0.28758225  0.89416817  0.72778024    -0.17100
C1899       C  0.21677698  0.85815767  0.72810198    -0.17500
C1900       C  0.31302336  0.84494855  0.76288064    -0.17400
C1901       C  0.29044437  0.89209971  0.77091374    -0.17000
C1902       C  0.22075109  0.85638526  0.77100433    -0.17300
C1903       C  0.73352795  0.86129359  0.78703411     0.45400
H1904       H  0.72261020  0.86016031  0.82024618    -0.03600
C1905       C  0.75147044  0.86666879  0.70826167     0.45400
H1906       H  0.75877390  0.86903951  0.67419831    -0.03600
C1907       C  0.70639970  0.83979861  0.76063652    -0.17300
C1908       C  0.71461389  0.88813768  0.76950447    -0.17100
C1909       C  0.79261622  0.85823413  0.77641172    -0.17500
C1910       C  0.71574360  0.84295684  0.71873129    -0.17400
C1911       C  0.72295662  0.89108162  0.72743362    -0.17000
C1912       C  0.80164708  0.85985538  0.73348470    -0.17300
C1913       C  0.13732205  0.80209595  0.67686852    -0.26400
C1914       C  0.11902787  0.81509199  0.64095762    -0.14500
C1915       C  0.12740842  0.84310387  0.63680648     0.36200
C1916       C  0.15590053  0.85689611  0.66727441    -0.25800
C1917       C  0.17719041  0.84355762  0.70202944    -0.15100
C1918       C  0.16737460  0.81567818  0.70654258     0.37300
N1919       N  0.19199074  0.80023168  0.73860062    -0.89300
H1920       H  0.13167964  0.78066847  0.68050388     0.18400
H1921       H  0.16323729  0.87812747  0.66291408     0.18400
N1922       N  0.10712670  0.85820890  0.60230604    -0.88400
H1923       H  0.21427097  0.78526546  0.72421142     0.35700
H1924       H  0.16259759  0.79072675  0.75612445     0.40800
H1925       H  0.06682524  0.85468970  0.60029540     0.40500
H1926       H  0.12548211  0.85181772  0.57491229     0.35300
C1927       C  0.20764782  0.82375405  0.82943453    -0.26400
C1928       C  0.18452523  0.84122086  0.80009719    -0.14500
C1929       C  0.12914942  0.84317774  0.79942521     0.36200
C1930       C  0.09892254  0.82749182  0.82780908    -0.25800
C1931       C  0.12330901  0.81058344  0.85728252    -0.15100
C1932       C  0.17809161  0.80848919  0.85752085     0.37300
N1933       N  0.20368714  0.79065912  0.88651751    -0.89300
H1934       H  0.24952177  0.82140743  0.83053645     0.18400
H1935       H  0.05659670  0.82914642  0.82797026     0.18400
N1936       N  0.10398338  0.86135406  0.77089924    -0.88400
H1937       H  0.24444340  0.79162992  0.88311643     0.35700
H1938       H  0.19289316  0.77108416  0.87900433     0.40800
H1939       H  0.11526963  0.88078710  0.77877622     0.40500
H1940       H  0.06326464  0.86045465  0.77457632     0.35300
C1941       C  0.19270704  0.66011335  0.83398647    -0.26400
C1942       C  0.16620915  0.64481806  0.80390168    -0.14500
C1943       C  0.11060427  0.64675448  0.80304820     0.36200
C1944       C  0.08464183  0.66469793  0.83035027    -0.25800
C1945       C  0.11230145  0.67967059  0.86003468    -0.15100
C1946       C  0.16711618  0.67724545  0.86127084     0.37300
N1947       N  0.19856350  0.69270962  0.88910549    -0.89300
H1948       H  0.23449549  0.65951549  0.83675182     0.18400
H1949       H  0.04257442  0.66622346  0.82929725     0.18400
N1950       N  0.07911525  0.63003894  0.77696615    -0.88400
H1951       H  0.18998182  0.68711956  0.91985268     0.35700
H1952       H  0.18970292  0.71301662  0.88485045     0.40800
H1953       H  0.10185496  0.61588449  0.76124285     0.40500
H1954       H  0.06118604  0.64233182  0.75466013     0.35300
C1955       C  0.13479604  0.63665783  0.67157033    -0.26400
C1956       C  0.15807734  0.64852064  0.70643658    -0.14500
C1957       C  0.15278357  0.67657041  0.71146045     0.36200
C1958       C  0.12627286  0.69201868  0.68127836    -0.25800
C1959       C  0.10645776  0.68030245  0.64503746    -0.15100
C1960       C  0.10893638  0.65219403  0.64113869     0.37300
N1961       N  0.08519024  0.63932459  0.60626725    -0.89300
H1962       H  0.13874408  0.61524791  0.66698162     0.18400
H1963       H  0.12420004  0.71357181  0.68498915     0.18400
N1964       N  0.17727417  0.68992128  0.74542464    -0.88400
H1965       H  0.05741725  0.62569904  0.61774702     0.35700
H1966       H  0.11423575  0.62850935  0.59049526     0.40800
H1967       H  0.14806924  0.69985268  0.76241448     0.40500
H1968       H  0.20225257  0.70451558  0.73288058     0.35300
C1969       C  0.89913073  0.65535869  0.64030487    -0.26400
C1970       C  0.89320863  0.68322389  0.64395937    -0.14500
C1971       C  0.86669758  0.69346683  0.67933844     0.36200
C1972       C  0.84498518  0.67575462  0.70901501    -0.25800
C1973       C  0.84937996  0.64778280  0.70459925    -0.15100
C1974       C  0.87822089  0.63761587  0.67026917     0.37300
N1975       N  0.88725501  0.60943211  0.66483709    -0.89300
H1976       H  0.92046944  0.64724906  0.61386120     0.18400
H1977       H  0.82140363  0.68394325  0.73412667     0.18400
N1978       N  0.85843082  0.72163745  0.68466254    -0.88400
H1979       H  0.86642273  0.60343024  0.63856956     0.35700
H1980       H  0.87360260  0.59831113  0.69038354     0.40800
H1981       H  0.83932577  0.72917676  0.65828495     0.40500
H1982       H  0.89487745  0.73097635  0.68707043     0.35300
C1983       C  0.91779828  0.66466043  0.83731450    -0.26400
C1984       C  0.88817123  0.68340680  0.86017256    -0.14500
C1985       C  0.83393451  0.68502759  0.85277870     0.36200
C1986       C  0.81080292  0.66804085  0.82363202    -0.25800
C1987       C  0.83978347  0.64883527  0.80098208    -0.15100
C1988       C  0.89454073  0.64729458  0.80806914     0.37300
N1989       N  0.92727149  0.62758432  0.78827170    -0.89300
H1990       H  0.95896403  0.66256340  0.84385364     0.18400
H1991       H  0.76922323  0.66978150  0.81928734     0.18400
N1992       N  0.80121897  0.70379746  0.87442954    -0.88400
H1993       H  0.95384619  0.63780902  0.76897139     0.35700
H1994       H  0.90570109  0.61495324  0.76915434     0.40800
H1995       H  0.81597035  0.72306366  0.86906926     0.40500
H1996       H  0.80304837  0.69963141  0.90638855     0.35300
C1997       C  0.91649084  0.83231459  0.83263841    -0.26400
C1998       C  0.89318264  0.81745161  0.86520489    -0.14500
C1999       C  0.83910512  0.81958903  0.87235067     0.36200
C2000       C  0.80877878  0.83478272  0.84519995    -0.25800
C2001       C  0.82996595  0.84762761  0.80940492    -0.15100
C2002       C  0.88546909  0.84825992  0.80548992     0.37300
N2003       N  0.91011502  0.86494212  0.77440914    -0.89300
H2004       H  0.95869725  0.83189424  0.82892601     0.18400
H2005       H  0.76775208  0.83456451  0.85214409     0.18400
N2006       N  0.81477289  0.80578150  0.90715100    -0.88400
H2007       H  0.95090290  0.86312008  0.77583702     0.35700
H2008       H  0.90103163  0.88484140  0.78148975     0.40800
H2009       H  0.81962140  0.78519283  0.90265988     0.40500
H2010       H  0.77440208  0.80938357  0.90841484     0.35300
C2011       C  0.86512275  0.85936717  0.67415639    -0.26400
C2012       C  0.84427352  0.84568477  0.70905493    -0.14500
C2013       C  0.85407565  0.81756002  0.71208322     0.36200
C2014       C  0.88043020  0.80420610  0.67994458    -0.25800
C2015       C  0.89749340  0.81758588  0.64384324    -0.15100
C2016       C  0.89113739  0.84579209  0.64172463     0.37300
N2017       N  0.91043111  0.86127302  0.60712841    -0.89300
H2018       H  0.85822486  0.88072145  0.67078658     0.18400
H2019       H  0.88536147  0.78267183  0.68247826     0.18400
N2020       N  0.83414265  0.80112300  0.74511260    -0.88400
H2021       H  0.89021787  0.85567898  0.58039985     0.35700
H2022       H  0.95032758  0.85709773  0.60307851     0.40800
H2023       H  0.79566473  0.80666391  0.75066587     0.40500
H2024       H  0.85653271  0.80374766  0.77173995     0.35300
C2025       C  0.73867770  0.57099202  0.84083862    -0.26400
C2026       C  0.72933603  0.56786998  0.79804669    -0.14500
C2027       C  0.69331526  0.54743363  0.78741243     0.36200
C2028       C  0.65444809  0.53990031  0.81667697    -0.25800
C2029       C  0.65771201  0.54765993  0.85876177    -0.15100
C2030       C  0.70318858  0.56171386  0.87103689     0.37300
N2031       N  0.71359258  0.56726917  0.91394242    -0.89300
H2032       H  0.77248748  0.58208639  0.85127944     0.18400
H2033       H  0.62447256  0.52588108  0.80730368     0.18400
N2034       N  0.70402015  0.52900993  0.75424187    -0.88400
H2035       H  0.71619081  0.58804327  0.91739668     0.35700
H2036       H  0.74994705  0.55888406  0.92150614     0.40800
H2037       H  0.73948359  0.53332694  0.73919844     0.40500
H2038       H  0.67293498  0.52876100  0.73327417     0.35300
C2039       C  0.65873075  0.57694225  0.70502185    -0.26400
C2040       C  0.71342271  0.57531598  0.69830711    -0.14500
C2041       C  0.73183347  0.56238500  0.66187714     0.36200
C2042       C  0.69589085  0.55203759  0.63322573    -0.25800
C2043       C  0.64144568  0.55316874  0.64023309    -0.15100
C2044       C  0.62269587  0.56510086  0.67729600     0.37300
N2045       N  0.56738840  0.56582408  0.68616608    -0.89300
H2046       H  0.64429091  0.58693397  0.73267613     0.18400
H2047       H  0.71090813  0.54250695  0.60528296     0.18400
N2048       N  0.78671424  0.55881334  0.65324088    -0.88400
H2049       H  0.56015972  0.57584994  0.71414520     0.35700
H2050       H  0.55510627  0.54609505  0.69133056     0.40800
H2051       H  0.80981880  0.56521318  0.67792718     0.40500
H2052       H  0.79610870  0.57058593  0.62713298     0.35300
C2053       C  0.36282501  0.58092459  0.62713388    -0.26400
C2054       C  0.37316037  0.55398571  0.63402301    -0.14500
C2055       C  0.34931141  0.54087037  0.66840935     0.36200
C2056       C  0.31568301  0.55558736  0.69534632    -0.25800
C2057       C  0.30673669  0.58337231  0.68941506    -0.15100
C2058       C  0.33137379  0.59574371  0.65397145     0.37300
N2059       N  0.32679629  0.62360274  0.64433877    -0.89300
H2060       H  0.38098541  0.59117509  0.60075989     0.18400
H2061       H  0.29630459  0.54523368  0.72091591     0.18400
N2062       N  0.35835282  0.51275714  0.67535747    -0.88400
H2063       H  0.36453322  0.63158289  0.64160196     0.35700
H2064       H  0.30905291  0.62558144  0.61514698     0.40800
H2065       H  0.34266354  0.50244955  0.65007636     0.40500
H2066       H  0.33804105  0.50616428  0.70195445     0.35300
C2067       C  0.36222888  0.57580976  0.78242293    -0.26400
C2068       C  0.30742170  0.57599978  0.78849353    -0.14500
C2069       C  0.28737225  0.56372755  0.82551177     0.36200
C2070       C  0.32186938  0.55350041  0.85597018    -0.25800
C2071       C  0.37660783  0.55411430  0.85057428    -0.15100
C2072       C  0.39658984  0.56473597  0.81235583     0.37300
N2073       N  0.45173916  0.56601435  0.80389470    -0.89300
H2074       H  0.37892941  0.58589962  0.75540368     0.18400
H2075       H  0.30543353  0.54478621  0.88425113     0.18400
N2076       N  0.23201017  0.56153633  0.83355599    -0.88400
H2077       H  0.46664237  0.54651765  0.80255550     0.35700
H2078       H  0.46984165  0.57622042  0.82822514     0.40800
H2079       H  0.21000325  0.56826628  0.80819592     0.40500
H2080       H  0.22291121  0.57384809  0.85885735     0.35300
C2081       C  0.61070419  0.92777523  0.67156917    -0.26400
C2082       C  0.63736104  0.94088568  0.63907394    -0.14500
C2083       C  0.69274848  0.93926250  0.63746532     0.36200
C2084       C  0.71992993  0.92413164  0.66797901    -0.25800
C2085       C  0.69307825  0.91027456  0.69990467    -0.15100
C2086       C  0.63755151  0.91189609  0.70089126     0.37300
N2087       N  0.60747979  0.89585161  0.72934766    -0.89300
H2088       H  0.56821968  0.92835444  0.67261928     0.18400
H2089       H  0.76225603  0.92252330  0.66618821     0.18400
N2090       N  0.72114262  0.95277710  0.60463699    -0.88400
H2091       H  0.58279732  0.88366398  0.71184812     0.35700
H2092       H  0.58359569  0.90869851  0.74679346     0.40800
H2093       H  0.76143823  0.94949213  0.60766566     0.40500
H2094       H  0.71504044  0.97336185  0.60824573     0.35300
C2095       C  0.61631958  0.91358403  0.84950359    -0.26400
C2096       C  0.63242716  0.94000660  0.85457785    -0.14500
C2097       C  0.67435710  0.95022459  0.83000203     0.36200
C2098       C  0.69924947  0.93336784  0.80092350    -0.25800
C2099       C  0.68363691  0.90660570  0.79652188    -0.15100
C2100       C  0.64132167  0.89686399  0.82098019     0.37300
N2101       N  0.62259259  0.87006619  0.81644275    -0.89300
H2102       H  0.58406493  0.90572686  0.86813765     0.18400
H2103       H  0.73215661  0.94090630  0.78278377     0.18400
N2104       N  0.69410503  0.97693063  0.83483189    -0.88400
H2105       H  0.58290110  0.87095923  0.80858890     0.35700
H2106       H  0.62547042  0.86031678  0.84534810     0.40800
H2107       H  0.67287944  0.98748461  0.85731869     0.40500
H2108       H  0.68884959  0.98689872  0.80639225     0.35300
C2109       C  0.35098503  0.89865554  0.83130919    -0.26400
C2110       C  0.31995442  0.91053939  0.79997048    -0.14500
C2111       C  0.31919585  0.93891115  0.79763309     0.36200
C2112       C  0.35090835  0.95415351  0.82495909    -0.25800
C2113       C  0.38253748  0.94142083  0.85514379    -0.15100
C2114       C  0.38242802  0.91346153  0.85774302     0.37300
N2115       N  0.41532705  0.89980962  0.88716774    -0.89300
H2116       H  0.35193792  0.87744789  0.83623848     0.18300
H2117       H  0.34962868  0.97584489  0.82339287     0.18400
N2118       N  0.28494026  0.95232020  0.76909478    -0.88400
H2119       H  0.44146152  0.88776326  0.87046850     0.35700
H2120       H  0.39183938  0.88744923  0.90600071     0.40800
H2121       H  0.25958977  0.96452402  0.78636580     0.40500
H2122       H  0.30775423  0.96473695  0.74985157     0.35300
C2123       C  0.40104901  0.93213824  0.67462275    -0.26400
C2124       C  0.37666059  0.94217447  0.63860574    -0.14500
C2125       C  0.32190185  0.93862573  0.63439474     0.36200
C2126       C  0.29342718  0.92456415  0.66555525    -0.25800
C2127       C  0.31815633  0.91353789  0.70080718    -0.15100
C2128       C  0.37297070  0.91722341  0.70482473     0.37300
N2129       N  0.40132476  0.90441897  0.73781333    -0.89300
H2130       H  0.44304791  0.93435859  0.67810826     0.18400
H2131       H  0.25175505  0.92135428  0.66161254     0.18400
N2132       N  0.29539542  0.94905234  0.59829506    -0.88400
H2133       H  0.42985517  0.89204102  0.72445917     0.35700
H2134       H  0.42073068  0.91926027  0.75457425     0.40800
H2135       H  0.29829209  0.96993952  0.59899560     0.40500
H2136       H  0.25541953  0.94450127  0.59964861     0.35300
C2137       C  0.36388890  0.78676368  0.82593158    -0.26400
C2138       C  0.40484427  0.79943377  0.84668483    -0.14500
C2139       C  0.42244512  0.82474882  0.83318599     0.36200
C2140       C  0.39541394  0.83805753  0.80161339    -0.25800
C2141       C  0.34973957  0.82704002  0.78498392    -0.15100
C2142       C  0.33620028  0.80042381  0.79487125     0.37300
N2143       N  0.29400672  0.78741186  0.77414383    -0.89300
H2144       H  0.35191811  0.76675893  0.83512878     0.18400
H2145       H  0.40841446  0.85776215  0.79171706     0.18400
N2146       N  0.46701821  0.83739605  0.85144441    -0.88400
H2147       H  0.26767842  0.78021923  0.79673299     0.35700
H2148       H  0.30940610  0.77077617  0.75862992     0.40800
H2149       H  0.49935720  0.82470187  0.84801506     0.40500
H2150       H  0.45975385  0.83983341  0.88333663     0.35300
C2151       C  0.35153779  0.80748313  0.62676276    -0.26400
C2152       C  0.40604214  0.80817701  0.63028739    -0.14500
C2153       C  0.42954300  0.82103215  0.66424700     0.36200
C2154       C  0.39719248  0.83377864  0.69364073    -0.25800
C2155       C  0.34231492  0.83277665  0.69032226    -0.15100
C2156       C  0.31959521  0.81926306  0.65671519     0.37300
N2157       N  0.26405083  0.81686009  0.65314980    -0.89300
H2158       H  0.33345399  0.79703199  0.60104490     0.18400
H2159       H  0.41490662  0.84481453  0.71867132     0.18400
N2160       N  0.48565602  0.82205419  0.66778957    -0.88400
H2161       H  0.25282637  0.82541678  0.62468981     0.35700
H2162       H  0.25478044  0.79646036  0.65240484     0.40800
H2163       H  0.49896413  0.80264272  0.67424575     0.40500
H2164       H  0.49630012  0.83374480  0.69328732     0.35300
C2165       C  0.70894133  0.80004357  0.80666531    -0.26400
C2166       C  0.67893968  0.81694163  0.78092430    -0.14500
C2167       C  0.62394393  0.81334460  0.77975431     0.36200
C2168       C  0.60050677  0.79597411  0.80877894    -0.25800
C2169       C  0.63083746  0.78226090  0.83841187    -0.15100
C2170       C  0.68551332  0.78257261  0.83528223     0.37300
N2171       N  0.71681037  0.76576960  0.86200673    -0.89300
H2172       H  0.75088756  0.80103225  0.80592994     0.18400
H2173       H  0.55812187  0.79475758  0.81012603     0.18400
N2174       N  0.59034039  0.82810275  0.75212204    -0.88400
H2175       H  0.75657327  0.76801565  0.85476441     0.35700
H2176       H  0.70756754  0.74585952  0.85532094     0.40800
H2177       H  0.61157384  0.84132268  0.73339824     0.40500
H2178       H  0.57304473  0.81428576  0.73213976     0.35300
C2179       C  0.67165072  0.78544862  0.65104273    -0.26400
C2180       C  0.64574186  0.79972156  0.61971101    -0.14500
C2181       C  0.64445156  0.82785947  0.61986083     0.36200
C2182       C  0.66754859  0.84127960  0.65298977    -0.25800
C2183       C  0.69263233  0.82707067  0.68512096    -0.15100
C2184       C  0.69607020  0.79891516  0.68342492     0.37300
N2185       N  0.72504620  0.78384583  0.71354693    -0.89300
H2186       H  0.67293551  0.76372301  0.65029035     0.18400
H2187       H  0.66525661  0.86292947  0.65404985     0.18400
N2188       N  0.61764295  0.84253971  0.58758833    -0.88400
H2189       H  0.69974631  0.76986682  0.72741392     0.35700
H2190       H  0.75439195  0.77321793  0.69776790     0.40800
H2191       H  0.63890139  0.84004516  0.55987350     0.40500
H2192       H  0.61803300  0.86308352  0.59379404     0.35300
C2193       C  0.65050490  0.63302961  0.82300343    -0.26400
C2194       C  0.67671382  0.64895876  0.79329608    -0.14500
C2195       C  0.67063850  0.67696514  0.79343512     0.36200
C2196       C  0.63950694  0.68862521  0.82436460    -0.25800
C2197       C  0.61583468  0.67265134  0.85543939    -0.15100
C2198       C  0.62061285  0.64470376  0.85446253     0.37300
N2199       N  0.59532424  0.62821774  0.88536556    -0.89300
H2200       H  0.65479033  0.61142485  0.82261411     0.18400
H2201       H  0.63578953  0.71027199  0.82527115     0.18400
N2202       N  0.69851786  0.69360071  0.76418240    -0.88400
H2203       H  0.62413713  0.61681064  0.90034335     0.35700
H2204       H  0.57027088  0.61502464  0.87008201     0.40800
H2205       H  0.72215646  0.70675750  0.78089714     0.40500
H2206       H  0.67107313  0.70506181  0.74775118     0.35300
C2207       C  0.71347747  0.66779435  0.66574733    -0.26400
C2208       C  0.68737271  0.65252811  0.69626442    -0.14500
C2209       C  0.63212370  0.65213542  0.69738184     0.36200
C2210       C  0.60422304  0.66699198  0.66782829    -0.25800
C2211       C  0.63068027  0.68161671  0.63685589    -0.15100
C2212       C  0.68598989  0.68261662  0.63622001     0.37300
N2213       N  0.71554715  0.69824443  0.60630741    -0.89300
H2214       H  0.75581868  0.66823946  0.66463572     0.18400
H2215       H  0.56173468  0.66617595  0.66796389     0.18400
N2216       N  0.60407539  0.63587690  0.72691546    -0.88400
H2217       H  0.73777384  0.71207578  0.62294186     0.35700
H2218       H  0.69131908  0.70964136  0.58700491     0.40800
H2219       H  0.57956264  0.64842513  0.74434162     0.40500
H2220       H  0.58008983  0.62287638  0.71028474     0.35300
C2221       C  0.34876112  0.69765741  0.83453374    -0.26400
C2222       C  0.37508410  0.68233267  0.86437770    -0.14500
C2223       C  0.37737108  0.65432658  0.86169535     0.36200
C2224       C  0.35170647  0.64193086  0.82938176    -0.25800
C2225       C  0.32355193  0.65701591  0.80008332    -0.15100
C2226       C  0.32176813  0.68514300  0.80270422     0.37300
N2227       N  0.29012309  0.70087466  0.77513133    -0.89300
H2228       H  0.34769566  0.71928817  0.83686665     0.18400
H2229       H  0.35279078  0.62034868  0.82786325     0.18400
N2230       N  0.40606623  0.63816024  0.89086447    -0.88400
H2231       H  0.26303525  0.71154604  0.79321367     0.35700
H2232       H  0.31441227  0.71478238  0.75997437     0.40800
H2233       H  0.39034726  0.64108701  0.92068847     0.40500
H2234       H  0.44513932  0.64445432  0.89066105     0.35300
C2235       C  0.40602387  0.68004774  0.67863332    -0.26400
C2236       C  0.38136991  0.69572615  0.64806770    -0.14500
C2237       C  0.32631227  0.69789025  0.64799798     0.36200
C2238       C  0.29655389  0.68286414  0.67654036    -0.25800
C2239       C  0.32091589  0.66568685  0.70525712    -0.15100
C2240       C  0.37621254  0.66455830  0.70673650     0.37300
N2241       N  0.40203755  0.64556889  0.73334592    -0.89300
H2242       H  0.44832492  0.67790113  0.67827476     0.18400
H2243       H  0.25422558  0.68369478  0.67493000     0.18400
N2244       N  0.30054277  0.71481120  0.61815411    -0.88400
H2245       H  0.42819942  0.65602019  0.75214616     0.35700
H2246       H  0.42377932  0.63248640  0.71461380     0.40800
H2247       H  0.27787212  0.72876825  0.63451017     0.40500
H2248       H  0.27518422  0.70294191  0.60072414     0.35300
loop_ 
_geom_bond_atom_site_label_1 
_geom_bond_atom_site_label_2 
_geom_bond_distance 
_geom_bond_site_symmetry_2 
_ccdc_geom_bond_type 
O1          Zr13   2.428       .  S
O1            C3   1.285       .  A
O2          Zr39   2.423       .  S
O2            C3   1.284       .  A
C3          C550   1.469       .  S
O4         Zr578   2.430       .  S
O4            C6   1.286       .  A
O5          Zr40   2.378       .  S
O5            C6   1.277       .  A
C6          C511   1.452       .  S
O7          Zr16   2.428   1_554  S
O7            C9   1.285       .  A
O8          Zr39   2.400       .  S
O8            C9   1.280       .  A
C9          C525   1.454       .  S
O10        Zr575   2.400       .  S
O10          C12   1.279       .  A
O11         Zr40   2.359       .  S
O11          C12   1.274       .  A
C12         C536   1.420       .  S
Zr13        O572   2.412   1_554  S
Zr13         O14   2.435       .  S
Zr13        O577   2.440       .  S
Zr13         O19   2.375       .  S
Zr13         O45   2.355       .  S
Zr13        O582   2.375   1_554  S
Zr13        O605   2.378   1_554  S
O14          H57   0.990       .  S
O15        Zr575   2.437       .  S
O15         H618   0.990       .  S
O15         H622   0.990       .  S
Zr16        O566   2.430       .  S
Zr16         O17   2.438   1_556  S
Zr16        O580   2.435       .  S
Zr16         O19   2.378   1_556  S
Zr16         O44   2.364   1_556  S
Zr16        O582   2.362       .  S
Zr16        O608   2.263       .  S
O17          H61   0.990       .  S
O17         H620   0.991       .  S
O18        Zr578   2.434       .  S
O18         H613   0.990       .  S
O19         Zr39   2.374       .  S
O20         Zr40   2.373       .  S
O20        Zr575   2.372       .  S
O20        Zr578   2.362       .  S
O20          H47   0.965       .  S
O21         Zr33   2.433       .  S
O21          C23   1.286       .  A
O22         Zr40   2.379       .  S
O22          C23   1.276       .  A
C23         C452   1.446       .  S
O24        Zr598   2.421   1_554  S
O24          C26   1.283       .  A
O25         Zr39   2.386       .  S
O25          C26   1.279       .  A
C26         C494   1.443       .  S
O27         Zr36   2.449       .  S
O27          C29   1.289       .  A
O28         Zr40   2.387       .  S
O28          C29   1.277       .  A
C29         C483   1.460       .  S
O30        Zr595   2.419   1_554  S
O30          C32   1.284       .  A
O31         Zr39   2.391       .  S
O31          C32   1.279       .  A
C32         C466   1.447       .  S
Zr33        O592   2.409       .  S
Zr33         O35   2.436       .  S
Zr33        O596   2.437       .  S
Zr33         O41   2.360       .  S
Zr33         O43   2.363       .  S
Zr33        O604   2.367       .  S
Zr33        O607   2.374       .  S
O34        Zr595   2.436       .  S
O34         H616   0.990   1_556  S
O34         H621   0.990       .  S
O35          H55   0.990       .  S
Zr36        O586   2.414       .  S
Zr36         O37   2.435       .  S
Zr36        O600   2.438       .  S
Zr36         O41   2.356       .  S
Zr36         O46   2.358       .  S
Zr36        O604   2.376       .  S
Zr36        O606   2.370       .  S
O37         H615   0.990       .  S
O38        Zr598   2.437       .  S
O38         H614   0.989       .  S
O38         H624   0.991       .  S
Zr39         O42   2.385       .  S
Zr39         O44   2.382       .  S
Zr39         O45   2.373       .  S
Zr40         O41   2.365       .  S
Zr40         O43   2.369       .  S
Zr40         O46   2.364       .  S
O41          H49   0.965       .  S
O42        Zr595   2.374   1_554  S
O42        Zr598   2.378   1_554  S
O43        Zr575   2.377       .  S
O44        Zr598   2.368   1_554  S
O44          H48   0.965       .  S
O45        Zr595   2.377   1_554  S
O45          H50   0.965       .  S
O46        Zr578   2.372       .  S
H51         O580   0.990   1_554  S
H52         O600   0.990       .  S
H53         O599   0.990       .  S
H54         O596   0.990       .  S
H56         O577   0.990   1_556  S
H58         O579   0.990       .  S
H59         O596   0.990       .  S
H60         O577   0.990       .  S
H62         O600   0.990       .  S
O63         Zr75   2.457   1_554  S
O63          C65   1.290       .  A
O64        Zr101   2.436       .  S
O64          C65   1.289       .  A
C65         C438   1.487       .  S
O66        Zr640   2.433       .  S
O66          C68   1.286       .  A
O67        Zr102   2.427       .  S
O67          C68   1.286       .  A
C68         C410   1.467       .  S
O69         Zr78   2.451   1_554  S
O69          C71   1.289       .  A
O70        Zr101   2.455       .  S
O70          C71   1.293       .  A
C71         C396   1.497       .  S
O72        Zr637   2.443       .  S
O72          C74   1.290       .  A
O73        Zr102   2.440       .  S
O73          C74   1.288       .  A
C74         C427   1.484       .  S
Zr75        O634   2.436       .  S
Zr75         O76   2.435       .  S
Zr75        O639   2.438       .  S
Zr75         O81   2.380   1_556  S
Zr75        O107   2.352   1_556  S
Zr75        O644   2.377       .  S
Zr75        O667   2.372       .  S
O76         H119   0.990       .  S
O77        Zr637   2.436       .  S
O77         H680   0.990       .  S
O77         H684   0.990       .  S
Zr78        O628   2.446       .  S
Zr78         O79   2.436       .  S
Zr78        O642   2.434       .  S
Zr78         O81   2.380   1_556  S
Zr78        O106   2.368   1_556  S
Zr78        O644   2.379       .  S
Zr78        O670   2.368       .  S
O79         H123   0.991   1_556  S
O79         H682   0.990       .  S
O80        Zr640   2.434       .  S
O80         H675   0.990       .  S
O81        Zr101   2.390       .  S
O82        Zr102   2.400       .  S
O82        Zr637   2.375       .  S
O82        Zr640   2.379       .  S
O82         H109   0.966       .  S
O83         Zr95   2.486       .  S
O83          C85   1.297       .  A
O84       Zr1226   2.443       .  S
O84          C85   1.289       .  A
C85         C385   1.510       .  S
O86        Zr660   2.456   1_554  S
O86          C88   1.290       .  A
O87       Zr1225   2.456   1_545  S
O87          C88   1.291       .  A
C88         C357   1.499       .  S
O89         Zr98   2.452       .  S
O89          C91   1.289       .  A
O90       Zr1226   2.437       .  S
O90          C91   1.289       .  A
C91         C343   1.503       .  S
O92        Zr657   2.451   1_554  S
O92          C94   1.293       .  A
O93       Zr1225   2.422   1_545  S
O93          C94   1.286       .  A
C94         C368   1.475       .  S
Zr95        O654   2.451       .  S
Zr95        O658   2.436       .  S
Zr95        O659   2.434       .  S
Zr95        O103   2.375       .  S
Zr95        O666   2.388       .  S
Zr95       O1793   2.380       .  S
Zr95       O1229   2.361       .  S
O96        Zr657   2.436       .  S
O96         H678   0.990       .  S
O96         H683   0.990   1_556  S
O97        Zr657   2.434       .  S
O97         H679   0.990   1_556  S
Zr98        O648   2.454       .  S
Zr98         O99   2.429       .  S
Zr98        O662   2.436       .  S
Zr98        O103   2.381       .  S
Zr98        O666   2.376       .  S
Zr98       O1232   2.369       .  S
Zr98       O1792   2.368   1_545  S
O99         H677   0.990       .  S
O100       Zr660   2.435   1_554  S
O100        H676   0.990   1_554  S
O100        H686   0.990   1_554  S
Zr101      O1211   2.453       .  S
Zr101      O1217   2.424       .  S
Zr101       O106   2.381       .  S
Zr101       O107   2.397       .  S
Zr101      O1228   2.403       .  S
Zr102      O1208   2.446       .  S
Zr102      O1214   2.432       .  S
Zr102       O105   2.383       .  S
Zr102       O108   2.390       .  S
Zr102      O1227   2.393       .  S
O103      Zr1226   2.393       .  S
O103        H111   0.965       .  S
O104       Zr657   2.392   1_554  S
O104       Zr660   2.368   1_554  S
O104      Zr1225   2.400   1_545  S
O105       Zr637   2.376       .  S
O105      Zr1219   2.363       .  S
O106      Zr1784   2.364   1_554  S
O106        H110   0.964       .  S
O107      Zr1781   2.380   1_554  S
O107        H112   0.965       .  S
O108       Zr640   2.368       .  S
O108      Zr1222   2.372       .  S
H113        O642   0.990   1_554  S
H114        O662   0.990       .  S
H115        O661   0.990       .  S
H116        O658   0.990       .  S
H117        O659   0.990       .  S
H118        O639   0.990   1_554  S
H120        O641   0.990       .  S
H121        O658   0.990       .  S
H122        O639   0.990   1_554  S
H124        O662   0.990       .  S
O125       Zr137   2.451       .  S
O125        C127   1.288       .  A
O126       Zr163   2.428   1_655  S
O126        C127   1.288       .  A
C127        C329   1.487       .  S
O128       Zr702   2.462       .  S
O128        C130   1.292       .  A
O129       Zr164   2.456   1_655  S
O129        C130   1.292       .  A
C130        C298   1.498       .  S
O131       Zr140   2.453       .  S
O131        C133   1.291       .  A
O132       Zr163   2.436   1_655  S
O132        C133   1.289       .  A
C133        C284   1.480       .  S
O134       Zr699   2.420       .  S
O134        C136   1.284       .  A
O135       Zr164   2.436   1_655  S
O135        C136   1.287       .  A
C136        C312   1.470       .  S
Zr137       O696   2.415   1_554  S
Zr137       O138   2.435       .  S
Zr137       O701   2.435   1_554  S
Zr137       O143   2.374       .  S
Zr137       O169   2.351   1_655  S
Zr137       O706   2.385   1_554  S
Zr137       O729   2.368   1_654  S
O138        H181   0.990   1_554  S
O139       Zr699   2.435       .  S
O139        H742   0.990       .  S
O139        H746   0.990       .  S
Zr140       O690   2.467   1_554  S
Zr140       O141   2.436       .  S
Zr140       O704   2.434       .  S
Zr140       O143   2.382       .  S
Zr140       O168   2.374       .  S
Zr140       O706   2.374   1_554  S
Zr140       O732   2.371   1_554  S
O141        H185   0.990       .  S
O141        H744   0.990   1_554  S
O142       Zr702   2.434       .  S
O142        H737   0.990       .  S
O143       Zr163   2.391   1_655  S
O144       Zr164   2.397   1_655  S
O144       Zr699   2.383       .  S
O144       Zr702   2.379       .  S
O144        H171   0.967       .  S
O145       Zr157   2.439       .  S
O145        C147   1.288       .  A
O146       Zr164   2.440       .  S
O146        C147   1.288       .  A
C147        C245   1.477       .  S
O148       Zr722   2.456       .  S
O148        C150   1.291       .  A
O149       Zr163   2.428       .  S
O149        C150   1.287       .  A
C150        C273   1.487       .  S
O151       Zr160   2.451       .  S
O151        C153   1.289       .  A
O152       Zr164   2.441       .  S
O152        C153   1.288       .  A
C153        C259   1.486       .  S
O154       Zr719   2.465       .  S
O154        C156   1.292       .  A
O155       Zr163   2.444       .  S
O155        C156   1.291       .  A
C156        C228   1.496       .  S
Zr157       O716   2.462       .  S
Zr157       O158   2.435       .  S
Zr157       O721   2.433       .  S
Zr157       O165   2.384       .  S
Zr157       O167   2.368       .  S
Zr157       O728   2.374       .  S
Zr157       O731   2.362       .  S
O158        H178   0.990       .  S
O158        H183   0.990       .  S
O159       Zr719   2.433   1_556  S
O159        H741   0.990   1_556  S
Zr160       O710   2.460       .  S
Zr160       O161   2.435       .  S
Zr160       O724   2.436       .  S
Zr160       O165   2.375       .  S
Zr160       O170   2.373       .  S
Zr160       O728   2.380       .  S
Zr160       O730   2.362       .  S
O161        H739   0.990       .  S
O162       Zr722   2.436       .  S
O162        H738   0.990   1_554  S
O162        H748   0.990   1_554  S
Zr163       O166   2.391       .  S
Zr163       O168   2.391   1_455  S
Zr163       O169   2.379       .  S
Zr164       O165   2.399       .  S
Zr164       O167   2.388       .  S
Zr164       O170   2.386       .  S
O165        H173   0.967       .  S
O166       Zr719   2.374       .  S
O166       Zr722   2.379       .  S
O167       Zr699   2.368   1_455  S
O168       Zr722   2.359   1_655  S
O168        H172   0.966       .  S
O169       Zr719   2.368       .  S
O169        H174   0.965       .  S
O170       Zr702   2.376   1_455  S
H175        O704   0.990       .  S
H176        O724   0.990       .  S
H177        O723   0.990       .  S
H179        O721   0.990       .  S
H180        O701   0.990   1_554  S
H182        O703   0.990       .  S
H184        O701   0.990   1_554  S
H186        O724   0.990       .  S
C187        H188   1.106       .  S
C187        C193   1.558       .  S
C187        C192   1.546       .  S
C187        C191   1.535       .  S
C189        H190   1.111       .  S
C189        C195   1.544       .  S
C189        C194   1.530       .  S
C189        C196   1.538       .  S
C191        C194   1.364       .  D
C191        C553   1.484       .  S
C192        C195   1.383       .  D
C192        C270   1.499       .  S
C193        C196   1.392       .  D
C193        C371   1.522       .  S
C194        C539   1.449       .  S
C195        C256   1.521       .  S
C196        C382   1.518       .  S
C197        H198   1.112       .  S
C197        C203   1.552       .  S
C197        C202   1.546       .  S
C197        C201   1.530       .  S
C199        H200   1.105       .  S
C199        C205   1.559       .  S
C199        C204   1.531       .  S
C199        C206   1.532       .  S
C201        C204   1.368       .  D
C201        C522   1.476       .  S
C202        C205   1.394       .  D
C202        C354   1.505       .  S
C203        C206   1.376       .  D
C203        C287   1.491       .  S
C204        C508   1.465       .  S
C205        C340   1.527       .  S
C206        C301   1.518       .  S
C207        H208   1.111       .  S
C207        C213   1.554       .  S
C207        C212   1.556       .  S
C207        C211   1.529       .  S
C209        H210   1.104       .  S
C209        C215   1.544       .  S
C209        C214   1.537       .  S
C209        C216   1.540       .  S
C211        C214   1.361       .  D
C211        C469   1.471       .  S
C212        C215   1.387       .  D
C212        C441   1.501       .  S
C213        C216   1.385       .  D
C213        C231   1.513       .  S
C214        C455   1.466       .  S
C215        C424   1.525       .  S
C216        C242   1.508       .  S
C217        H218   1.098       .  S
C217        C223   1.545       .  S
C217        C222   1.527       .  S
C217        C221   1.540       .  S
C219        H220   1.111       .  S
C219        C225   1.551       .  S
C219        C224   1.526       .  S
C219        C226   1.557       .  S
C221        C224   1.367       .  D
C221        C480   1.483       .  S
C222        C225   1.376       .  D
C222        C413   1.493       .  S
C223        C226   1.390       .  D
C223        C315   1.516       .  S
C224        C497   1.464       .  S
C225        C399   1.512       .  S
C226        C326   1.510       .  S
C227        C228   1.400       .  A
C227        C232   1.406       .  A
C227        H234   1.084       .  S
C228        C229   1.420       .  A
C229        C230   1.408       .  A
C229        N236   1.432       .  S
C230        C231   1.407       .  A
C230        H235   1.084       .  S
C231        C232   1.422       .  A
C232        N233   1.428       .  S
N233        H237   1.045       .  S
N233        H238   1.046       .  S
N236        H239   1.046       .  S
N236        H240   1.044       .  S
C241        C242   1.411       .  A
C241        C246   1.395       .  A
C241        H248   1.076       .  S
C242        C243   1.414       .  A
C243        C244   1.418       .  A
C243        N250   1.436       .  S
C244        C245   1.408       .  A
C244        H249   1.082       .  S
C245        C246   1.402       .  A
C246        N247   1.440       .  S
N247        H251   1.046       .  S
N247        H252   1.046       .  S
N250        H253   1.045       .  S
N250        H254   1.045       .  S
C255        C256   1.412       .  A
C255        C260   1.388       .  A
C255        H262   1.069       .  S
C256        C257   1.423       .  A
C257        C258   1.417       .  A
C257        N264   1.436       .  S
C258        C259   1.409       .  A
C258        H263   1.076       .  S
C259        C260   1.403       .  A
C260        N261   1.435       .  S
N261        H265   1.044       .  S
N261        H266   1.046       .  S
N264        H267   1.043       .  S
N264        H268   1.046       .  S
C269        C270   1.403       .  A
C269        C274   1.406       .  A
C269        H276   1.084       .  S
C270        C271   1.416       .  A
C271        C272   1.407       .  A
C271        N278   1.428       .  S
C272        C273   1.402       .  A
C272        H277   1.084       .  S
C273        C274   1.411       .  A
C274        N275   1.432       .  S
N275        H279   1.046       .  S
N275        H280   1.045       .  S
N278        H281   1.046       .  S
N278        H282   1.045       .  S
C283        C284   1.403       .  A
C283        C288   1.401       .  A
C283        H290   1.085       .  S
C284        C285   1.417       .  A
C285        C286   1.407       .  A
C285        N292   1.438       .  S
C286        C287   1.408       .  A
C286        H291   1.084       .  S
C287        C288   1.413       .  A
C288        N289   1.437       .  S
N289        H293   1.045       .  S
N289        H294   1.043       .  S
N292        H295   1.043       .  S
N292        H296   1.045       .  S
C297        C298   1.407       .  A
C297        C302   1.416       .  A
C297        H304   1.076       .  S
C298        C299   1.409       .  A
C299        C300   1.401       .  A
C299        N306   1.433       .  S
C300        C301   1.413       .  A
C300        H305   1.078       .  S
C301        C302   1.421       .  A
C302        N303   1.437       .  S
N303        H307   1.046       .  S
N303        H308   1.042       .  S
N306        H309   1.045       .  S
N306        H310   1.045       .  S
C311        C312   1.406       .  A
C311        C316   1.420       .  A
C311        H318   1.082       .  S
C312        C313   1.399       .  A
C313        C314   1.386       .  A
C313        N320   1.443       .  S
C314        C315   1.412       .  A
C314        H319   1.068       .  S
C315        C316   1.420       .  A
C316        N317   1.436       .  S
N317        H321   1.046       .  S
N317        H322   1.046       .  S
N320        H323   1.045       .  S
N320        H324   1.046       .  S
C325        C326   1.407       .  A
C325        C330   1.406       .  A
C325        H332   1.084       .  S
C326        C327   1.428       .  A
C327        C328   1.395       .  A
C327        N334   1.426       .  S
C328        C329   1.396       .  A
C328        H333   1.084       .  S
C329        C330   1.417       .  A
C330        N331   1.431       .  S
N331        H335   1.043       .  S
N331        H336   1.046       .  S
N334        H337   1.034       .  S
N334        H338   1.040       .  S
C339        C340   1.405       .  A
C339        C344   1.399       .  A
C339        H346   1.083       .  S
C340        C341   1.419       .  A
C341        C342   1.411       .  A
C341        N348   1.435       .  S
C342        C343   1.411       .  A
C342        H347   1.083       .  S
C343        C344   1.416       .  A
C344        N345   1.431       .  S
N345        H349   1.046       .  S
N345        H350   1.046       .  S
N348        H351   1.044       .  S
N348        H352   1.043       .  S
C353        C354   1.411       .  A
C353        C358   1.416       .  A
C353        H360   1.082       .  S
C354        C355   1.416       .  A
C355        C356   1.406       .  A
C355        N362   1.436       .  S
C356        C357   1.407       .  A
C356        H361   1.084       .  S
C357        C358   1.414       .  A
C358        N359   1.437       .  S
N359        H363   1.045       .  S
N359        H364   1.045       .  S
N362        H365   1.042       .  S
N362        H366   1.045       .  S
C367        C368   1.385       .  A
C367        C372   1.389       .  A
C367        H374   1.086       .  S
C368        C369   1.411       .  A
C369        C370   1.418       .  A
C369        N376   1.437       .  S
C370        C371   1.415       .  A
C370        H375   1.082       .  S
C371        C372   1.430       .  A
C372        N373   1.426       .  S
N373        H377   1.045       .  S
N373        H378   1.046       .  S
N376        H379   1.045       .  S
N376        H380   1.045       .  S
C381        C382   1.411       .  A
C381        C386   1.414       .  A
C381        H388   1.083       .  S
C382        C383   1.422       .  A
C383        C384   1.410       .  A
C383        N390   1.438       .  S
C384        C385   1.406       .  A
C384        H389   1.084       .  S
C385        C386   1.422       .  A
C386        N387   1.432       .  S
N387        H391   1.044       .  S
N387        H392   1.046       .  S
N390        H393   1.044       .  S
N390        H394   1.046       .  S
C395        C396   1.400       .  A
C395        C400   1.407       .  A
C395        H402   1.084       .  S
C396        C397   1.418       .  A
C397        C398   1.415       .  A
C397        N404   1.438       .  S
C398        C399   1.406       .  A
C398        H403   1.084       .  S
C399        C400   1.421       .  A
C400        N401   1.429       .  S
N401        H405   1.045       .  S
N401        H406   1.046       .  S
N404        H407   1.045       .  S
N404        H408   1.046       .  S
C409        C410   1.391       .  A
C409        C414   1.391       .  A
C409        H416   1.085       .  S
C410        C411   1.416       .  A
C411        C412   1.406       .  A
C411        N418   1.432       .  S
C412        C413   1.401       .  A
C412        H417   1.084       .  S
C413        C414   1.418       .  A
C414        N415   1.429       .  S
N415        H419   1.046       .  S
N415        H420   1.046       .  S
N418        H421   1.043       .  S
N418        H422   1.044       .  S
C423        C424   1.411       .  A
C423        C428   1.390       .  A
C423        H430   1.070       .  S
C424        C425   1.420       .  A
C425        C426   1.423       .  A
C425        N432   1.430       .  S
C426        C427   1.409       .  A
C426        H431   1.084       .  S
C427        C428   1.398       .  A
C428        N429   1.434       .  S
N429        H433   1.043       .  S
N429        H434   1.046       .  S
N432        H435   1.046       .  S
N432        H436   1.045       .  S
C437        C438   1.400       .  A
C437        C442   1.405       .  A
C437        H444   1.084       .  S
C438        C439   1.414       .  A
C439        C440   1.412       .  A
C439        N446   1.438       .  S
C440        C441   1.404       .  A
C440        H445   1.084       .  S
C441        C442   1.417       .  A
C442        N443   1.430       .  S
N443        H447   1.044       .  S
N443        H448   1.045       .  S
N446        H449   1.045       .  S
N446        H450   1.046       .  S
C451        C452   1.398       .  A
C451        C456   1.395       .  A
C451        H458   1.083       .  S
C452        C453   1.406       .  A
C453        C454   1.389       .  A
C453        N460   1.433       .  S
C454        C455   1.398       .  A
C454        H459   1.082       .  S
C455        C456   1.404       .  A
C456        N457   1.429       .  S
N457        H461   1.046       .  S
N457        H462   1.045       .  S
N460        H463   1.044       .  S
N460        H464   1.045       .  S
C465        C466   1.396       .  A
C465        C470   1.389       .  A
C465        H472   1.085       .  S
C466        C467   1.405       .  A
C467        C468   1.399       .  A
C467        N474   1.438       .  S
C468        C469   1.403       .  A
C468        H473   1.077       .  S
C469        C470   1.404       .  A
C470        N471   1.427       .  S
N471        H475   1.045       .  S
N471        H476   1.046       .  S
N474        H477   1.045       .  S
N474        H478   1.046       .  S
C479        C480   1.403       .  A
C479        C484   1.394       .  A
C479        H486   1.073       .  S
C480        C481   1.417       .  A
C481        C482   1.400       .  A
C481        N488   1.436       .  S
C482        C483   1.402       .  A
C482        H487   1.083       .  S
C483        C484   1.399       .  A
C484        N485   1.438       .  S
N485        H489   1.045       .  S
N485        H490   1.046       .  S
N488        H491   1.039       .  S
N488        H492   1.045       .  S
C493        C494   1.397       .  A
C493        C498   1.391       .  A
C493        H500   1.085       .  S
C494        C495   1.403       .  A
C495        C496   1.394       .  A
C495        N502   1.438       .  S
C496        C497   1.402       .  A
C496        H501   1.082       .  S
C497        C498   1.406       .  A
C498        N499   1.429       .  S
N499        H503   1.046       .  S
N499        H504   1.046       .  S
N502        H505   1.045       .  S
N502        H506   1.046       .  S
C507        C508   1.403       .  A
C507        C512   1.391       .  A
C507        H514   1.083       .  S
C508        C509   1.406       .  A
C509        C510   1.394       .  A
C509        N516   1.432       .  S
C510        C511   1.403       .  A
C510        H515   1.084       .  S
C511        C512   1.401       .  A
C512        N513   1.433       .  S
N513        H517   1.046       .  S
N513        H518   1.045       .  S
N516        H519   1.046       .  S
N516        H520   1.046       .  S
C521        C522   1.400       .  A
C521        C526   1.390       .  A
C521        H528   1.080       .  S
C522        C523   1.411       .  A
C523        C524   1.399       .  A
C523        N530   1.431       .  S
C524        C525   1.399       .  A
C524        H529   1.084       .  S
C525        C526   1.412       .  A
C526        N527   1.440       .  S
N527        H531   1.046       .  S
N527        H532   1.042       .  S
N530        H533   1.046       .  S
N530        H534   1.045       .  S
C535        C536   1.392       .  A
C535        C540   1.385       .  A
C535        H542   1.083       .  S
C536        C537   1.401       .  A
C537        C538   1.377       .  A
C537        N544   1.434       .  S
C538        C539   1.399       .  A
C538        H543   1.078       .  S
C539        C540   1.406       .  A
C540        N541   1.429       .  S
N541        H545   1.046       .  S
N541        H546   1.045       .  S
N544        H547   1.045       .  S
N544        H548   1.045       .  S
C549        C550   1.401       .  A
C549        C554   1.404       .  A
C549        H556   1.084       .  S
C550        C551   1.407       .  A
C551        C552   1.397       .  A
C551        N558   1.433       .  S
C552        C553   1.400       .  A
C552        H557   1.082       .  S
C553        C554   1.415       .  A
C554        N555   1.432       .  S
N555        H559   1.046       .  S
N555        H560   1.046       .  S
N558        H561   1.046       .  S
N558        H562   1.046       .  S
O563       Zr575   2.426       .  S
O563        C565   1.285       .  A
O564       Zr601   2.422       .  S
O564        C565   1.284       .  A
C565       C1112   1.469       .  S
O566        C568   1.285       .  A
O567       Zr602   2.369       .  S
O567        C568   1.274       .  A
C568       C1073   1.448       .  S
O569       Zr578   2.423       .  S
O569        C571   1.284       .  A
O570       Zr601   2.403       .  S
O570        C571   1.281       .  A
C571       C1087   1.454       .  S
O572        C574   1.281       .  A
O573       Zr602   2.358       .  S
O573        C574   1.272       .  A
C574       C1098   1.426       .  S
Zr575       O576   2.435       .  S
Zr575       O581   2.364       .  S
Zr575       O607   2.358       .  S
O576        H619   0.990       .  S
Zr578       O579   2.431       .  S
Zr578       O581   2.372       .  S
Zr578       O606   2.364       .  S
O579        H623   0.990       .  S
O581       Zr601   2.363       .  S
O582       Zr602   2.372       .  S
O582        H609   0.964       .  S
O583       Zr595   2.448       .  S
O583        C585   1.288       .  A
O584       Zr602   2.380       .  S
O584        C585   1.275       .  A
C585       C1014   1.453       .  S
O586        C588   1.282       .  A
O587       Zr601   2.371       .  S
O587        C588   1.277       .  A
C588       C1056   1.438       .  S
O589       Zr598   2.447       .  S
O589        C591   1.289       .  A
O590       Zr602   2.372       .  S
O590        C591   1.274       .  A
C591       C1045   1.453       .  S
O592        C594   1.283       .  A
O593       Zr601   2.389       .  S
O593        C594   1.279       .  A
C594       C1028   1.445       .  S
Zr595       O597   2.436       .  S
Zr595       O603   2.361       .  S
Zr595       O605   2.369       .  S
O597        H617   0.990   1_556  S
Zr598       O599   2.442       .  S
Zr598       O603   2.355       .  S
Zr598       O608   2.257       .  S
Zr601       O604   2.382       .  S
Zr601       O606   2.379       .  S
Zr601       O607   2.370       .  S
Zr602       O603   2.364       .  S
Zr602       O605   2.367       .  S
Zr602       O608   2.250       .  S
O603        H611   0.965       .  S
O606        H610   0.965       .  S
O607        H612   0.966       .  S
O625       Zr637   2.471       .  S
O625        C627   1.293       .  A
O626       Zr663   2.435       .  S
O626        C627   1.289       .  A
C627       C1000   1.496       .  S
O628        C630   1.288       .  A
O629       Zr664   2.424       .  S
O629        C630   1.285       .  A
C630        C972   1.472       .  S
O631       Zr640   2.443       .  S
O631        C633   1.287       .  A
O632       Zr663   2.455       .  S
O632        C633   1.293       .  A
C633        C958   1.490       .  S
O634        C636   1.289       .  A
O635       Zr664   2.441       .  S
O635        C636   1.288       .  A
C636        C989   1.480       .  S
Zr637       O638   2.436       .  S
Zr637       O643   2.377       .  S
Zr637       O669   2.356       .  S
O638        H681   0.990       .  S
Zr640       O641   2.438       .  S
Zr640       O643   2.377       .  S
Zr640       O668   2.363       .  S
O641        H685   0.990       .  S
O643       Zr663   2.388       .  S
O644       Zr664   2.399       .  S
O644        H671   0.966       .  S
O645       Zr657   2.491       .  S
O645        C647   1.298       .  A
O646      Zr1788   2.440       .  S
O646        C647   1.288       .  A
C647        C947   1.510       .  S
O648        C650   1.290       .  A
O649      Zr1787   2.451   1_545  S
O649        C650   1.291       .  A
C650        C919   1.495       .  S
O651       Zr660   2.441       .  S
O651        C653   1.287       .  A
O652      Zr1788   2.444       .  S
O652        C653   1.290       .  A
C653        C905   1.501       .  S
O654        C656   1.292       .  A
O655      Zr1787   2.433   1_545  S
O655        C656   1.287       .  A
C656        C930   1.481       .  S
Zr657       O665   2.374       .  S
Zr657      O1231   2.378   1_546  S
Zr657      O1791   2.358   1_545  S
Zr660       O661   2.431       .  S
Zr660       O665   2.381       .  S
Zr660      O1794   2.371       .  S
Zr660      O1230   2.368   1_556  S
Zr663      O1773   2.456       .  S
Zr663      O1779   2.428       .  S
Zr663      O1790   2.403       .  S
Zr663       O668   2.381       .  S
Zr663       O669   2.402       .  S
Zr664      O1770   2.438       .  S
Zr664      O1776   2.437       .  S
Zr664      O1789   2.393       .  S
Zr664       O667   2.380       .  S
Zr664       O670   2.388       .  S
O665      Zr1788   2.392       .  S
O665        H673   0.965       .  S
O666      Zr1787   2.402   1_545  S
O667      Zr1781   2.362       .  S
O668      Zr1222   2.366       .  S
O668        H672   0.965       .  S
O669      Zr1219   2.385       .  S
O669        H674   0.964       .  S
O670      Zr1784   2.372       .  S
O687       Zr699   2.459       .  S
O687        C689   1.289       .  A
O688       Zr725   2.437   1_655  S
O688        C689   1.290       .  A
C689        C891   1.493       .  S
O690        C692   1.292       .  A
O691       Zr726   2.455   1_655  S
O691        C692   1.291       .  A
C692        C860   1.498       .  S
O693       Zr702   2.464       .  S
O693        C695   1.293       .  A
O694       Zr725   2.426   1_655  S
O694        C695   1.287       .  A
C695        C846   1.481       .  S
O696        C698   1.284       .  A
O697       Zr726   2.443   1_655  S
O697        C698   1.289       .  A
C698        C874   1.470       .  S
Zr699       O700   2.436       .  S
Zr699       O705   2.372       .  S
Zr699       O731   2.360   1_655  S
O700        H743   0.990       .  S
Zr702       O703   2.437       .  S
Zr702       O705   2.382       .  S
Zr702       O730   2.370   1_655  S
O703        H747   0.990       .  S
O705       Zr725   2.392   1_655  S
O706       Zr726   2.392   1_655  S
O706        H733   0.968       .  S
O707       Zr719   2.440   1_556  S
O707        C709   1.288       .  A
O708       Zr726   2.430       .  S
O708        C709   1.287       .  A
C709        C807   1.474       .  S
O710        C712   1.292       .  A
O711       Zr725   2.425       .  S
O711        C712   1.287       .  A
C712        C835   1.486       .  S
O713       Zr722   2.445   1_556  S
O713        C715   1.289       .  A
O714       Zr726   2.436       .  S
O714        C715   1.288       .  A
C715        C821   1.482       .  S
O716        C718   1.291       .  A
O717       Zr725   2.443       .  S
O717        C718   1.290       .  A
C718        C790   1.496       .  S
Zr719       O720   2.435       .  S
Zr719       O727   2.377   1_554  S
Zr719       O729   2.374   1_554  S
O720        H740   0.990   1_554  S
O720        H745   0.990       .  S
Zr722       O723   2.435       .  S
Zr722       O727   2.374   1_554  S
Zr722       O732   2.376   1_454  S
Zr725       O728   2.389       .  S
Zr725       O730   2.392       .  S
Zr725       O731   2.379       .  S
Zr726       O727   2.401       .  S
Zr726       O729   2.387       .  S
Zr726       O732   2.386   1_455  S
O727        H735   0.966       .  S
O730        H734   0.965       .  S
O731        H736   0.966       .  S
C749        H750   1.105       .  S
C749        C755   1.554       .  S
C749        C754   1.543       .  S
C749        C753   1.534       .  S
C751        H752   1.112       .  S
C751        C757   1.543       .  S
C751        C756   1.532       .  S
C751        C758   1.540       .  S
C753        C756   1.364       .  D
C753       C1115   1.483       .  S
C754        C757   1.382       .  D
C754        C832   1.494       .  S
C755        C758   1.391       .  D
C755        C933   1.523       .  S
C756       C1101   1.452       .  S
C757        C818   1.519       .  S
C758        C944   1.513       .  S
C759        H760   1.112       .  S
C759        C765   1.553       .  S
C759        C764   1.546       .  S
C759        C763   1.531       .  S
C761        H762   1.106       .  S
C761        C767   1.561       .  S
C761        C766   1.530       .  S
C761        C768   1.530       .  S
C763        C766   1.366       .  D
C763       C1084   1.477       .  S
C764        C767   1.392       .  D
C764        C916   1.504       .  S
C765        C768   1.376       .  D
C765        C849   1.490       .  S
C766       C1070   1.464       .  S
C767        C902   1.525       .  S
C768        C863   1.517       .  S
C769        H770   1.110       .  S
C769        C775   1.553       .  S
C769        C774   1.553       .  S
C769        C773   1.529       .  S
C771        H772   1.104       .  S
C771        C777   1.547       .  S
C771        C776   1.537       .  S
C771        C778   1.538       .  S
C773        C776   1.365       .  D
C773       C1031   1.469       .  S
C774        C777   1.390       .  D
C774       C1003   1.509       .  S
C775        C778   1.380       .  D
C775        C793   1.512       .  S
C776       C1017   1.472       .  S
C777        C986   1.523       .  S
C778        C804   1.505       .  S
C779        H780   1.101       .  S
C779        C785   1.550       .  S
C779        C784   1.527       .  S
C779        C783   1.540       .  S
C781        H782   1.111       .  S
C781        C787   1.549       .  S
C781        C786   1.529       .  S
C781        C788   1.550       .  S
C783        C786   1.368       .  D
C783       C1042   1.480       .  S
C784        C787   1.372       .  D
C784        C975   1.497       .  S
C785        C788   1.391       .  D
C785        C877   1.513       .  S
C786       C1059   1.467       .  S
C787        C961   1.504       .  S
C788        C888   1.512       .  S
C789        C790   1.400       .  A
C789        C794   1.408       .  A
C789        H796   1.084       .  S
C790        C791   1.419       .  A
C791        C792   1.408       .  A
C791        N798   1.432       .  S
C792        C793   1.405       .  A
C792        H797   1.084       .  S
C793        C794   1.422       .  A
C794        N795   1.427       .  S
N795        H799   1.045       .  S
N795        H800   1.046       .  S
N798        H801   1.046       .  S
N798        H802   1.044       .  S
C803        C804   1.410       .  A
C803        C808   1.397       .  A
C803        H810   1.077       .  S
C804        C805   1.411       .  A
C805        C806   1.412       .  A
C805        N812   1.431       .  S
C806        C807   1.406       .  A
C806        H811   1.083       .  S
C807        C808   1.404       .  A
C808        N809   1.440       .  S
N809        H813   1.046       .  S
N809        H814   1.046       .  S
N812        H815   1.045       .  S
N812        H816   1.046       .  S
C817        C818   1.412       .  A
C817        C822   1.388       .  A
C817        H824   1.071       .  S
C818        C819   1.423       .  A
C819        C820   1.416       .  A
C819        N826   1.436       .  S
C820        C821   1.407       .  A
C820        H825   1.078       .  S
C821        C822   1.404       .  A
C822        N823   1.435       .  S
N823        H827   1.043       .  S
N823        H828   1.046       .  S
N826        H829   1.043       .  S
N826        H830   1.046       .  S
C831        C832   1.403       .  A
C831        C836   1.408       .  A
C831        H838   1.084       .  S
C832        C833   1.413       .  A
C833        C834   1.405       .  A
C833        N840   1.430       .  S
C834        C835   1.403       .  A
C834        H839   1.084       .  S
C835        C836   1.413       .  A
C836        N837   1.438       .  S
N837        H841   1.046       .  S
N837        H842   1.046       .  S
N840        H843   1.046       .  S
N840        H844   1.045       .  S
C845        C846   1.403       .  A
C845        C850   1.402       .  A
C845        H852   1.084       .  S
C846        C847   1.413       .  A
C847        C848   1.403       .  A
C847        N854   1.432       .  S
C848        C849   1.406       .  A
C848        H853   1.084       .  S
C849        C850   1.415       .  A
C850        N851   1.436       .  S
N851        H855   1.045       .  S
N851        H856   1.043       .  S
N854        H857   1.046       .  S
N854        H858   1.045       .  S
C859        C860   1.408       .  A
C859        C864   1.416       .  A
C859        H866   1.079       .  S
C860        C861   1.410       .  A
C861        C862   1.403       .  A
C861        N868   1.433       .  S
C862        C863   1.412       .  A
C862        H867   1.077       .  S
C863        C864   1.420       .  A
C864        N865   1.437       .  S
N865        H869   1.045       .  S
N865        H870   1.043       .  S
N868        H871   1.046       .  S
N868        H872   1.045       .  S
C873        C874   1.406       .  A
C873        C878   1.419       .  A
C873        H880   1.083       .  S
C874        C875   1.400       .  A
C875        C876   1.387       .  A
C875        N882   1.442       .  S
C876        C877   1.411       .  A
C876        H881   1.069       .  S
C877        C878   1.420       .  A
C878        N879   1.436       .  S
N879        H883   1.046       .  S
N879        H884   1.045       .  S
N882        H885   1.045       .  S
N882        H886   1.046       .  S
C887        C888   1.407       .  A
C887        C892   1.407       .  A
C887        H894   1.084       .  S
C888        C889   1.427       .  A
C889        C890   1.398       .  A
C889        N896   1.426       .  S
C890        C891   1.398       .  A
C890        H895   1.084       .  S
C891        C892   1.418       .  A
C892        N893   1.431       .  S
N893        H897   1.043       .  S
N893        H898   1.046       .  S
N896        H899   1.035       .  S
N896        H900   1.040       .  S
C901        C902   1.402       .  A
C901        C906   1.396       .  A
C901        H908   1.083       .  S
C902        C903   1.420       .  A
C903        C904   1.411       .  A
C903        N910   1.435       .  S
C904        C905   1.410       .  A
C904        H909   1.083       .  S
C905        C906   1.417       .  A
C906        N907   1.430       .  S
N907        H911   1.046       .  S
N907        H912   1.046       .  S
N910        H913   1.044       .  S
N910        H914   1.043       .  S
C915        C916   1.411       .  A
C915        C920   1.415       .  A
C915        H922   1.082       .  S
C916        C917   1.416       .  A
C917        C918   1.405       .  A
C917        N924   1.435       .  S
C918        C919   1.406       .  A
C918        H923   1.084       .  S
C919        C920   1.413       .  A
C920        N921   1.437       .  S
N921        H925   1.045       .  S
N921        H926   1.045       .  S
N924        H927   1.042       .  S
N924        H928   1.045       .  S
C929        C930   1.388       .  A
C929        C934   1.391       .  A
C929        H936   1.085       .  S
C930        C931   1.412       .  A
C931        C932   1.418       .  A
C931        N938   1.437       .  S
C932        C933   1.414       .  A
C932        H937   1.082       .  S
C933        C934   1.430       .  A
C934        N935   1.427       .  S
N935        H939   1.045       .  S
N935        H940   1.046       .  S
N938        H941   1.045       .  S
N938        H942   1.046       .  S
C943        C944   1.409       .  A
C943        C948   1.411       .  A
C943        H950   1.083       .  S
C944        C945   1.420       .  A
C945        C946   1.411       .  A
C945        N952   1.438       .  S
C946        C947   1.407       .  A
C946        H951   1.084       .  S
C947        C948   1.422       .  A
C948        N949   1.432       .  S
N949        H953   1.045       .  S
N949        H954   1.046       .  S
N952        H955   1.044       .  S
N952        H956   1.045       .  S
C957        C958   1.399       .  A
C957        C962   1.405       .  A
C957        H964   1.084       .  S
C958        C959   1.418       .  A
C959        C960   1.413       .  A
C959        N966   1.437       .  S
C960        C961   1.404       .  A
C960        H965   1.084       .  S
C961        C962   1.419       .  A
C962        N963   1.429       .  S
N963        H967   1.045       .  S
N963        H968   1.046       .  S
N966        H969   1.045       .  S
N966        H970   1.046       .  S
C971        C972   1.393       .  A
C971        C976   1.395       .  A
C971        H978   1.085       .  S
C972        C973   1.418       .  A
C973        C974   1.408       .  A
C973        N980   1.434       .  S
C974        C975   1.403       .  A
C974        H979   1.084       .  S
C975        C976   1.416       .  A
C976        N977   1.428       .  S
N977        H981   1.046       .  S
N977        H982   1.046       .  S
N980        H983   1.043       .  S
N980        H984   1.044       .  S
C985        C986   1.412       .  A
C985        C990   1.389       .  A
C985        H992   1.069       .  S
C986        C987   1.419       .  A
C987        C988   1.421       .  A
C987        N994   1.430       .  S
C988        C989   1.408       .  A
C988        H993   1.084       .  S
C989        C990   1.397       .  A
C990        N991   1.434       .  S
N991        H995   1.044       .  S
N991        H996   1.046       .  S
N994        H997   1.045       .  S
N994        H998   1.046       .  S
C999       C1000   1.404       .  A
C999       C1004   1.409       .  A
C999       H1006   1.084       .  S
C1000      C1001   1.415       .  A
C1001      C1002   1.413       .  A
C1001      N1008   1.437       .  S
C1002      C1003   1.406       .  A
C1002      H1007   1.084       .  S
C1003      C1004   1.418       .  A
C1004      N1005   1.431       .  S
N1005      H1009   1.045       .  S
N1005      H1010   1.046       .  S
N1008      H1011   1.045       .  S
N1008      H1012   1.046       .  S
C1013      C1014   1.398       .  A
C1013      C1018   1.396       .  A
C1013      H1020   1.083       .  S
C1014      C1015   1.407       .  A
C1015      C1016   1.392       .  A
C1015      N1022   1.432       .  S
C1016      C1017   1.399       .  A
C1016      H1021   1.082       .  S
C1017      C1018   1.404       .  A
C1018      N1019   1.428       .  S
N1019      H1023   1.046       .  S
N1019      H1024   1.046       .  S
N1022      H1025   1.045       .  S
N1022      H1026   1.044       .  S
C1027      C1028   1.395       .  A
C1027      C1032   1.385       .  A
C1027      H1034   1.085       .  S
C1028      C1029   1.405       .  A
C1029      C1030   1.399       .  A
C1029      N1036   1.438       .  S
C1030      C1031   1.405       .  A
C1030      H1035   1.079       .  S
C1031      C1032   1.405       .  A
C1032      N1033   1.429       .  S
N1033      H1037   1.046       .  S
N1033      H1038   1.046       .  S
N1036      H1039   1.045       .  S
N1036      H1040   1.046       .  S
C1041      C1042   1.403       .  A
C1041      C1046   1.393       .  A
C1041      H1048   1.075       .  S
C1042      C1043   1.416       .  A
C1043      C1044   1.397       .  A
C1043      N1050   1.435       .  S
C1044      C1045   1.400       .  A
C1044      H1049   1.083       .  S
C1045      C1046   1.398       .  A
C1046      N1047   1.438       .  S
N1047      H1051   1.045       .  S
N1047      H1052   1.046       .  S
N1050      H1053   1.038       .  S
N1050      H1054   1.045       .  S
C1055      C1056   1.396       .  A
C1055      C1060   1.389       .  A
C1055      H1062   1.085       .  S
C1056      C1057   1.401       .  A
C1057      C1058   1.391       .  A
C1057      N1064   1.439       .  S
C1058      C1059   1.403       .  A
C1058      H1063   1.081       .  S
C1059      C1060   1.409       .  A
C1060      N1061   1.429       .  S
N1061      H1065   1.046       .  S
N1061      H1066   1.046       .  S
N1064      H1067   1.045       .  S
N1064      H1068   1.046       .  S
C1069      C1070   1.403       .  A
C1069      C1074   1.391       .  A
C1069      H1076   1.084       .  S
C1070      C1071   1.406       .  A
C1071      C1072   1.394       .  A
C1071      N1078   1.432       .  S
C1072      C1073   1.403       .  A
C1072      H1077   1.085       .  S
C1073      C1074   1.400       .  A
C1074      N1075   1.433       .  S
N1075      H1079   1.046       .  S
N1075      H1080   1.046       .  S
N1078      H1081   1.046       .  S
N1078      H1082   1.046       .  S
C1083      C1084   1.400       .  A
C1083      C1088   1.392       .  A
C1083      H1090   1.082       .  S
C1084      C1085   1.411       .  A
C1085      C1086   1.399       .  A
C1085      N1092   1.430       .  S
C1086      C1087   1.398       .  A
C1086      H1091   1.085       .  S
C1087      C1088   1.413       .  A
C1088      N1089   1.440       .  S
N1089      H1093   1.046       .  S
N1089      H1094   1.043       .  S
N1092      H1095   1.046       .  S
N1092      H1096   1.045       .  S
C1097      C1098   1.397       .  A
C1097      C1102   1.387       .  A
C1097      H1104   1.083       .  S
C1098      C1099   1.407       .  A
C1099      C1100   1.380       .  A
C1099      N1106   1.441       .  S
C1100      C1101   1.397       .  A
C1100      H1105   1.078       .  S
C1101      C1102   1.404       .  A
C1102      N1103   1.431       .  S
N1103      H1107   1.046       .  S
N1103      H1108   1.046       .  S
N1106      H1109   1.042       .  S
N1106      H1110   1.046       .  S
C1111      C1112   1.401       .  A
C1111      C1116   1.403       .  A
C1111      H1118   1.084       .  S
C1112      C1113   1.407       .  A
C1113      C1114   1.398       .  A
C1113      N1120   1.433       .  S
C1114      C1115   1.401       .  A
C1114      H1119   1.082       .  S
C1115      C1116   1.414       .  A
C1116      N1117   1.432       .  S
N1117      H1121   1.046       .  S
N1117      H1122   1.046       .  S
N1120      H1123   1.046       .  S
N1120      H1124   1.046       .  S
O1125     Zr1137   2.437       .  S
O1125      C1127   1.288       .  A
O1126     Zr1163   2.420       .  S
O1126      C1127   1.284       .  A
C1127      C1674   1.472       .  S
O1128     Zr1702   2.436       .  S
O1128      C1130   1.287       .  A
O1129     Zr1164   2.375       .  S
O1129      C1130   1.277       .  A
C1130      C1635   1.454       .  S
O1131     Zr1140   2.424   1_554  S
O1131      C1133   1.284       .  A
O1132     Zr1163   2.403       .  S
O1132      C1133   1.281       .  A
C1133      C1649   1.454       .  S
O1134     Zr1699   2.408       .  S
O1134      C1136   1.281       .  A
O1135     Zr1164   2.349       .  S
O1135      C1136   1.272       .  A
C1136      C1660   1.422       .  S
Zr1137     O1696   2.421   1_554  S
Zr1137     O1138   2.434       .  S
Zr1137     O1701   2.436       .  S
Zr1137     O1143   2.372       .  S
Zr1137     O1706   2.375   1_554  S
Zr1137     O1729   2.371   1_554  S
Zr1137     O1169   2.357       .  S
O1138      H1181   0.990   1_554  S
O1139     Zr1699   2.436       .  S
O1139      H1742   0.990       .  S
O1139      H1746   0.990       .  S
Zr1140     O1690   2.433       .  S
Zr1140     O1141   2.435   1_556  S
Zr1140     O1704   2.434       .  S
Zr1140     O1706   2.361       .  S
Zr1140     O1143   2.372   1_556  S
Zr1140     O1168   2.369   1_556  S
Zr1140     O1732   2.369       .  S
O1141      H1744   0.990       .  S
O1141      H1185   0.990   1_554  S
O1142     Zr1702   2.435       .  S
O1142      H1737   0.990       .  S
O1143     Zr1163   2.373       .  S
O1144     Zr1699   2.368       .  S
O1144     Zr1702   2.357       .  S
O1144     Zr1164   2.372       .  S
O1144      H1171   0.963       .  S
O1145     Zr1157   2.438       .  S
O1145      C1147   1.287       .  A
O1146     Zr1164   2.381       .  S
O1146      C1147   1.276       .  A
C1147      C1576   1.450       .  S
O1148     Zr1722   2.409   1_554  S
O1148      C1150   1.281       .  A
O1149     Zr1163   2.385       .  S
O1149      C1150   1.279       .  A
C1150      C1618   1.441       .  S
O1151     Zr1160   2.440       .  S
O1151      C1153   1.288       .  A
O1152     Zr1164   2.383       .  S
O1152      C1153   1.276       .  A
C1153      C1607   1.458       .  S
O1154     Zr1719   2.412   1_554  S
O1154      C1156   1.283       .  A
O1155     Zr1163   2.400       .  S
O1155      C1156   1.281       .  A
C1156      C1590   1.448       .  S
Zr1157     O1716   2.416       .  S
Zr1157     O1720   2.436       .  S
Zr1157     O1159   2.436       .  S
Zr1157     O1165   2.363       .  S
Zr1157     O1728   2.371       .  S
Zr1157     O1731   2.370       .  S
Zr1157     O1167   2.364       .  S
O1158     Zr1719   2.437       .  S
O1158      H1740   0.990       .  S
O1158      H1745   0.990   1_556  S
O1159      H1179   0.990       .  S
Zr1160     O1710   2.415       .  S
Zr1160     O1161   2.434       .  S
Zr1160     O1724   2.437       .  S
Zr1160     O1728   2.379       .  S
Zr1160     O1165   2.358       .  S
Zr1160     O1170   2.358       .  S
Zr1160     O1730   2.368       .  S
O1161      H1739   0.990       .  S
O1162     Zr1722   2.437       .  S
O1162      H1738   0.990       .  S
O1162      H1748   0.990       .  S
Zr1163     O1166   2.382       .  S
Zr1163     O1168   2.380       .  S
Zr1163     O1169   2.374       .  S
Zr1164     O1165   2.363       .  S
Zr1164     O1167   2.367       .  S
Zr1164     O1170   2.363       .  S
O1165      H1173   0.964       .  S
O1166     Zr1719   2.371   1_554  S
O1166     Zr1722   2.379   1_554  S
O1167     Zr1699   2.375       .  S
O1168     Zr1722   2.369   1_554  S
O1168      H1172   0.964       .  S
O1169     Zr1719   2.374   1_554  S
O1169      H1174   0.966       .  S
O1170     Zr1702   2.370       .  S
H1175      O1704   0.990       .  S
H1176      O1724   0.990       .  S
H1177      O1723   0.990       .  S
H1178      O1720   0.990       .  S
H1180      O1701   0.990       .  S
H1182      O1703   0.990       .  S
H1183      O1720   0.990       .  S
H1184      O1701   0.990   1_556  S
H1186      O1724   0.990       .  S
O1187     Zr1199   2.462   1_554  S
O1187      C1189   1.291       .  A
O1188     Zr1225   2.436       .  S
O1188      C1189   1.289       .  A
C1189      C1562   1.492       .  S
O1190     Zr1764   2.448       .  S
O1190      C1192   1.289       .  A
O1191     Zr1226   2.423   1_565  S
O1191      C1192   1.285       .  A
C1192      C1534   1.471       .  S
O1193     Zr1202   2.457   1_554  S
O1193      C1195   1.290       .  A
O1194     Zr1225   2.452       .  S
O1194      C1195   1.292       .  A
C1195      C1520   1.494       .  S
O1196     Zr1761   2.437       .  S
O1196      C1198   1.289       .  A
O1197     Zr1226   2.443   1_565  S
O1197      C1198   1.288       .  A
C1198      C1551   1.483       .  S
Zr1199     O1758   2.442       .  S
Zr1199     O1200   2.436       .  S
Zr1199     O1763   2.436       .  S
Zr1199     O1205   2.378   1_556  S
Zr1199     O1768   2.378       .  S
Zr1199     O1791   2.373       .  S
Zr1199     O1231   2.356   1_556  S
O1200      H1243   0.989       .  S
O1201     Zr1761   2.436       .  S
O1201      H1804   0.990       .  S
O1201      H1808   0.990       .  S
Zr1202     O1752   2.439       .  S
Zr1202     O1203   2.438       .  S
Zr1202     O1766   2.433       .  S
Zr1202     O1768   2.378       .  S
Zr1202     O1205   2.373   1_556  S
Zr1202     O1230   2.367   1_566  S
Zr1202     O1794   2.371   1_565  S
O1203      H1806   0.990       .  S
O1203      H1247   0.990   1_556  S
O1204     Zr1764   2.435       .  S
O1204      H1799   0.990       .  S
O1205     Zr1225   2.389       .  S
O1206     Zr1761   2.379       .  S
O1206     Zr1764   2.380       .  S
O1206     Zr1226   2.402   1_565  S
O1206      H1233   0.966       .  S
O1207     Zr1219   2.482       .  S
O1207      C1209   1.296       .  A
O1208      C1209   1.289       .  A
C1209      C1509   1.511       .  S
O1210     Zr1784   2.459   1_554  S
O1210      C1212   1.291       .  A
O1211      C1212   1.291       .  A
C1212      C1481   1.498       .  S
O1213     Zr1222   2.441       .  S
O1213      C1215   1.287       .  A
O1214      C1215   1.289       .  A
C1215      C1467   1.496       .  S
O1216     Zr1781   2.447   1_554  S
O1216      C1218   1.292       .  A
O1217      C1218   1.286       .  A
C1218      C1492   1.476       .  S
Zr1219     O1778   2.447       .  S
Zr1219     O1782   2.437       .  S
Zr1219     O1783   2.433       .  S
Zr1219     O1227   2.370       .  S
Zr1219     O1790   2.386       .  S
O1220     Zr1781   2.438       .  S
O1220      H1802   0.990   1_556  S
O1220      H1807   0.990       .  S
O1221     Zr1781   2.433       .  S
O1221      H1803   0.990       .  S
Zr1222     O1772   2.448       .  S
Zr1222     O1223   2.431       .  S
Zr1222     O1786   2.437       .  S
Zr1222     O1790   2.372       .  S
Zr1222     O1227   2.382       .  S
O1223      H1801   0.990       .  S
O1224     Zr1784   2.435   1_554  S
O1224      H1800   0.990   1_554  S
O1224      H1810   0.990   1_554  S
Zr1225     O1230   2.380   1_565  S
Zr1225     O1231   2.401       .  S
Zr1226     O1229   2.380       .  S
Zr1226     O1232   2.389       .  S
O1227      H1235   0.965       .  S
O1228     Zr1781   2.390   1_554  S
O1228     Zr1784   2.371   1_554  S
O1229     Zr1761   2.374   1_545  S
O1230      H1234   0.965       .  S
O1231      H1236   0.965       .  S
O1232     Zr1764   2.370   1_545  S
H1237      O1766   0.991       .  S
H1238      O1786   0.990       .  S
H1239      O1785   0.990       .  S
H1240      O1782   0.991       .  S
H1241      O1783   0.990       .  S
H1242      O1763   0.990   1_554  S
H1244      O1765   0.990       .  S
H1245      O1782   0.990       .  S
H1246      O1763   0.990   1_554  S
H1248      O1786   0.990       .  S
O1249     Zr1261   2.452       .  S
O1249      C1251   1.288       .  A
O1250     Zr1287   2.436   1_655  S
O1250      C1251   1.289       .  A
C1251      C1453   1.492       .  S
O1252     Zr1826   2.473       .  S
O1252      C1254   1.294       .  A
O1253     Zr1288   2.457   1_655  S
O1253      C1254   1.292       .  A
C1254      C1422   1.500       .  S
O1255     Zr1264   2.456       .  S
O1255      C1257   1.292       .  A
O1256     Zr1287   2.438   1_655  S
O1256      C1257   1.289       .  A
C1257      C1408   1.482       .  S
O1258     Zr1823   2.416       .  S
O1258      C1260   1.284       .  A
O1259     Zr1288   2.443   1_655  S
O1259      C1260   1.289       .  A
C1260      C1436   1.473       .  S
Zr1261     O1820   2.408   1_554  S
Zr1261     O1262   2.435       .  S
Zr1261     O1825   2.435   1_554  S
Zr1261     O1267   2.366       .  S
Zr1261     O1830   2.385   1_554  S
Zr1261     O1853   2.367   1_654  S
Zr1261     O1293   2.354   1_655  S
O1262      H1305   0.990       .  S
O1263     Zr1823   2.435       .  S
O1263      H1866   0.990       .  S
O1263      H1870   0.990       .  S
Zr1264     O1814   2.470   1_554  S
Zr1264     O1265   2.436       .  S
Zr1264     O1828   2.434       .  S
Zr1264     O1830   2.376   1_554  S
Zr1264     O1267   2.385       .  S
Zr1264     O1292   2.372   1_655  S
Zr1264     O1856   2.366   1_654  S
O1265      H1868   0.990   1_554  S
O1265      H1309   0.990       .  S
O1266     Zr1826   2.434       .  S
O1266      H1861   0.991       .  S
O1267     Zr1287   2.388   1_655  S
O1268     Zr1823   2.387       .  S
O1268     Zr1826   2.379       .  S
O1268     Zr1288   2.395   1_655  S
O1268      H1295   0.966       .  S
O1269     Zr1281   2.443       .  S
O1269      C1271   1.289       .  A
O1270     Zr1288   2.437       .  S
O1270      C1271   1.288       .  A
C1271      C1369   1.479       .  S
O1272     Zr1846   2.463       .  S
O1272      C1274   1.293       .  A
O1273     Zr1287   2.424       .  S
O1273      C1274   1.287       .  A
C1274      C1397   1.487       .  S
O1275     Zr1284   2.448       .  S
O1275      C1277   1.289       .  A
O1276     Zr1288   2.438       .  S
O1276      C1277   1.288       .  A
C1277      C1383   1.483       .  S
O1278     Zr1843   2.462   1_554  S
O1278      C1280   1.291       .  A
O1279     Zr1287   2.449       .  S
O1279      C1280   1.292       .  A
C1280      C1352   1.497       .  S
Zr1281     O1840   2.452       .  S
Zr1281     O1282   2.436       .  S
Zr1281     O1845   2.433       .  S
Zr1281     O1289   2.377       .  S
Zr1281     O1852   2.375       .  S
Zr1281     O1855   2.370       .  S
Zr1281     O1291   2.368       .  S
O1282      H1302   0.990       .  S
O1282      H1307   0.990       .  S
O1283     Zr1843   2.432       .  S
O1283      H1865   0.990       .  S
Zr1284     O1834   2.465       .  S
Zr1284     O1285   2.436       .  S
Zr1284     O1848   2.436       .  S
Zr1284     O1852   2.376       .  S
Zr1284     O1289   2.376       .  S
Zr1284     O1294   2.377       .  S
Zr1284     O1854   2.360       .  S
O1285      H1863   0.990       .  S
O1286     Zr1846   2.437       .  S
O1286      H1862   0.990   1_554  S
O1286      H1872   0.990   1_554  S
Zr1287     O1290   2.390       .  S
Zr1287     O1292   2.392       .  S
Zr1287     O1293   2.381       .  S
Zr1288     O1289   2.402       .  S
Zr1288     O1291   2.387       .  S
Zr1288     O1294   2.385       .  S
O1289      H1297   0.968       .  S
O1290     Zr1843   2.372   1_554  S
O1290     Zr1846   2.376       .  S
O1291     Zr1823   2.369   1_455  S
O1292     Zr1846   2.362       .  S
O1292      H1296   0.967       .  S
O1293     Zr1843   2.372   1_554  S
O1293      H1298   0.965       .  S
O1294     Zr1826   2.371   1_455  S
H1299      O1828   0.991       .  S
H1300      O1848   0.990       .  S
H1301      O1847   0.990   1_554  S
H1303      O1845   0.990       .  S
H1304      O1825   0.990   1_554  S
H1306      O1827   0.990       .  S
H1308      O1825   0.990   1_554  S
H1310      O1848   0.990       .  S
C1311      H1312   1.104       .  S
C1311      C1317   1.556       .  S
C1311      C1316   1.542       .  S
C1311      C1315   1.535       .  S
C1313      H1314   1.111       .  S
C1313      C1319   1.542       .  S
C1313      C1318   1.531       .  S
C1313      C1320   1.537       .  S
C1315      C1318   1.365       .  D
C1315      C1677   1.485       .  S
C1316      C1319   1.380       .  D
C1316      C1394   1.496       .  S
C1317      C1320   1.394       .  D
C1317      C1495   1.522       .  S
C1318      C1663   1.451       .  S
C1319      C1380   1.517       .  S
C1320      C1506   1.517       .  S
C1321      H1322   1.112       .  S
C1321      C1327   1.552       .  S
C1321      C1326   1.543       .  S
C1321      C1325   1.532       .  S
C1323      H1324   1.106       .  S
C1323      C1329   1.560       .  S
C1323      C1328   1.531       .  S
C1323      C1330   1.531       .  S
C1325      C1328   1.370       .  D
C1325      C1646   1.478       .  S
C1326      C1329   1.394       .  D
C1326      C1478   1.509       .  S
C1327      C1330   1.376       .  D
C1327      C1411   1.492       .  S
C1328      C1632   1.468       .  S
C1329      C1464   1.520       .  S
C1330      C1425   1.515       .  S
C1331      H1332   1.111       .  S
C1331      C1337   1.553       .  S
C1331      C1336   1.555       .  S
C1331      C1335   1.530       .  S
C1333      H1334   1.103       .  S
C1333      C1339   1.545       .  S
C1333      C1338   1.538       .  S
C1333      C1340   1.542       .  S
C1335      C1338   1.364       .  D
C1335      C1593   1.471       .  S
C1336      C1339   1.388       .  D
C1336      C1565   1.504       .  S
C1337      C1340   1.383       .  D
C1337      C1355   1.512       .  S
C1338      C1579   1.472       .  S
C1339      C1548   1.526       .  S
C1340      C1366   1.511       .  S
C1341      H1342   1.100       .  S
C1341      C1347   1.552       .  S
C1341      C1346   1.528       .  S
C1341      C1345   1.541       .  S
C1343      H1344   1.111       .  S
C1343      C1349   1.549       .  S
C1343      C1348   1.529       .  S
C1343      C1350   1.553       .  S
C1345      C1348   1.368       .  D
C1345      C1604   1.483       .  S
C1346      C1349   1.373       .  D
C1346      C1537   1.496       .  S
C1347      C1350   1.392       .  D
C1347      C1439   1.518       .  S
C1348      C1621   1.468       .  S
C1349      C1523   1.507       .  S
C1350      C1450   1.513       .  S
C1351      C1352   1.400       .  A
C1351      C1356   1.408       .  A
C1351      H1358   1.084       .  S
C1352      C1353   1.420       .  A
C1353      C1354   1.409       .  A
C1353      N1360   1.432       .  S
C1354      C1355   1.406       .  A
C1354      H1359   1.084       .  S
C1355      C1356   1.420       .  A
C1356      N1357   1.427       .  S
N1357      H1361   1.046       .  S
N1357      H1362   1.045       .  S
N1360      H1363   1.046       .  S
N1360      H1364   1.044       .  S
C1365      C1366   1.411       .  A
C1365      C1370   1.397       .  A
C1365      H1372   1.077       .  S
C1366      C1367   1.414       .  A
C1367      C1368   1.416       .  A
C1367      N1374   1.431       .  S
C1368      C1369   1.407       .  A
C1368      H1373   1.083       .  S
C1369      C1370   1.404       .  A
C1370      N1371   1.440       .  S
N1371      H1375   1.046       .  S
N1371      H1376   1.045       .  S
N1374      H1377   1.045       .  S
N1374      H1378   1.046       .  S
C1379      C1380   1.411       .  A
C1379      C1384   1.387       .  A
C1379      H1386   1.070       .  S
C1380      C1381   1.422       .  A
C1381      C1382   1.416       .  A
C1381      N1388   1.436       .  S
C1382      C1383   1.409       .  A
C1382      H1387   1.079       .  S
C1383      C1384   1.404       .  A
C1384      N1385   1.435       .  S
N1385      H1389   1.043       .  S
N1385      H1390   1.046       .  S
N1388      H1391   1.043       .  S
N1388      H1392   1.045       .  S
C1393      C1394   1.403       .  A
C1393      C1398   1.405       .  A
C1393      H1400   1.084       .  S
C1394      C1395   1.415       .  A
C1395      C1396   1.408       .  A
C1395      N1402   1.430       .  S
C1396      C1397   1.404       .  A
C1396      H1401   1.084       .  S
C1397      C1398   1.410       .  A
C1398      N1399   1.432       .  S
N1399      H1403   1.045       .  S
N1399      H1404   1.046       .  S
N1402      H1405   1.046       .  S
N1402      H1406   1.045       .  S
C1407      C1408   1.403       .  A
C1407      C1412   1.402       .  A
C1407      H1414   1.084       .  S
C1408      C1409   1.413       .  A
C1409      C1410   1.403       .  A
C1409      N1416   1.432       .  S
C1410      C1411   1.408       .  A
C1410      H1415   1.083       .  S
C1411      C1412   1.416       .  A
C1412      N1413   1.436       .  S
N1413      H1417   1.045       .  S
N1413      H1418   1.043       .  S
N1416      H1419   1.046       .  S
N1416      H1420   1.045       .  S
C1421      C1422   1.411       .  A
C1421      C1426   1.416       .  A
C1421      H1428   1.079       .  S
C1422      C1423   1.411       .  A
C1423      C1424   1.404       .  A
C1423      N1430   1.433       .  S
C1424      C1425   1.409       .  A
C1424      H1429   1.078       .  S
C1425      C1426   1.416       .  A
C1426      N1427   1.432       .  S
N1427      H1431   1.044       .  S
N1427      H1432   1.046       .  S
N1430      H1433   1.046       .  S
N1430      H1434   1.045       .  S
C1435      C1436   1.406       .  A
C1435      C1440   1.420       .  A
C1435      H1442   1.083       .  S
C1436      C1437   1.401       .  A
C1437      C1438   1.388       .  A
C1437      N1444   1.442       .  S
C1438      C1439   1.411       .  A
C1438      H1443   1.069       .  S
C1439      C1440   1.421       .  A
C1440      N1441   1.436       .  S
N1441      H1445   1.046       .  S
N1441      H1446   1.045       .  S
N1444      H1447   1.046       .  S
N1444      H1448   1.045       .  S
C1449      C1450   1.405       .  A
C1449      C1454   1.405       .  A
C1449      H1456   1.084       .  S
C1450      C1451   1.428       .  A
C1451      C1452   1.400       .  A
C1451      N1458   1.426       .  S
C1452      C1453   1.398       .  A
C1452      H1457   1.084       .  S
C1453      C1454   1.418       .  A
C1454      N1455   1.431       .  S
N1455      H1459   1.044       .  S
N1455      H1460   1.046       .  S
N1458      H1461   1.034       .  S
N1458      H1462   1.040       .  S
C1463      C1464   1.405       .  A
C1463      C1468   1.398       .  A
C1463      H1470   1.083       .  S
C1464      C1465   1.415       .  A
C1465      C1466   1.407       .  A
C1465      N1472   1.435       .  S
C1466      C1467   1.410       .  A
C1466      H1471   1.083       .  S
C1467      C1468   1.416       .  A
C1468      N1469   1.432       .  S
N1469      H1473   1.046       .  S
N1469      H1474   1.046       .  S
N1472      H1475   1.044       .  S
N1472      H1476   1.043       .  S
C1477      C1478   1.413       .  A
C1477      C1482   1.418       .  A
C1477      H1484   1.082       .  S
C1478      C1479   1.417       .  A
C1479      C1480   1.407       .  A
C1479      N1486   1.436       .  S
C1480      C1481   1.406       .  A
C1480      H1485   1.084       .  S
C1481      C1482   1.414       .  A
C1482      N1483   1.438       .  S
N1483      H1487   1.045       .  S
N1483      H1488   1.045       .  S
N1486      H1489   1.043       .  S
N1486      H1490   1.045       .  S
C1491      C1492   1.385       .  A
C1491      C1496   1.387       .  A
C1491      H1498   1.086       .  S
C1492      C1493   1.411       .  A
C1493      C1494   1.418       .  A
C1493      N1500   1.436       .  S
C1494      C1495   1.415       .  A
C1494      H1499   1.082       .  S
C1495      C1496   1.431       .  A
C1496      N1497   1.426       .  S
N1497      H1501   1.045       .  S
N1497      H1502   1.046       .  S
N1500      H1503   1.044       .  S
N1500      H1504   1.045       .  S
C1505      C1506   1.411       .  A
C1505      C1510   1.413       .  A
C1505      H1512   1.083       .  S
C1506      C1507   1.423       .  A
C1507      C1508   1.411       .  A
C1507      N1514   1.438       .  S
C1508      C1509   1.407       .  A
C1508      H1513   1.084       .  S
C1509      C1510   1.422       .  A
C1510      N1511   1.432       .  S
N1511      H1515   1.044       .  S
N1511      H1516   1.046       .  S
N1514      H1517   1.044       .  S
N1514      H1518   1.046       .  S
C1519      C1520   1.400       .  A
C1519      C1524   1.406       .  A
C1519      H1526   1.084       .  S
C1520      C1521   1.418       .  A
C1521      C1522   1.416       .  A
C1521      N1528   1.437       .  S
C1522      C1523   1.405       .  A
C1522      H1527   1.084       .  S
C1523      C1524   1.417       .  A
C1524      N1525   1.430       .  S
N1525      H1529   1.046       .  S
N1525      H1530   1.046       .  S
N1528      H1531   1.045       .  S
N1528      H1532   1.046       .  S
C1533      C1534   1.393       .  A
C1533      C1538   1.394       .  A
C1533      H1540   1.085       .  S
C1534      C1535   1.419       .  A
C1535      C1536   1.409       .  A
C1535      N1542   1.435       .  S
C1536      C1537   1.403       .  A
C1536      H1541   1.084       .  S
C1537      C1538   1.415       .  A
C1538      N1539   1.429       .  S
N1539      H1543   1.046       .  S
N1539      H1544   1.046       .  S
N1542      H1545   1.043       .  S
N1542      H1546   1.044       .  S
C1547      C1548   1.412       .  A
C1547      C1552   1.391       .  A
C1547      H1554   1.070       .  S
C1548      C1549   1.420       .  A
C1549      C1550   1.422       .  A
C1549      N1556   1.430       .  S
C1550      C1551   1.409       .  A
C1550      H1555   1.084       .  S
C1551      C1552   1.398       .  A
C1552      N1553   1.434       .  S
N1553      H1557   1.044       .  S
N1553      H1558   1.046       .  S
N1556      H1559   1.045       .  S
N1556      H1560   1.046       .  S
C1561      C1562   1.403       .  A
C1561      C1566   1.408       .  A
C1561      H1568   1.084       .  S
C1562      C1563   1.415       .  A
C1563      C1564   1.411       .  A
C1563      N1570   1.437       .  S
C1564      C1565   1.405       .  A
C1564      H1569   1.084       .  S
C1565      C1566   1.418       .  A
C1566      N1567   1.431       .  S
N1567      H1571   1.045       .  S
N1567      H1572   1.046       .  S
N1570      H1573   1.045       .  S
N1570      H1574   1.045       .  S
C1575      C1576   1.397       .  A
C1575      C1580   1.396       .  A
C1575      H1582   1.083       .  S
C1576      C1577   1.406       .  A
C1577      C1578   1.392       .  A
C1577      N1584   1.432       .  S
C1578      C1579   1.399       .  A
C1578      H1583   1.083       .  S
C1579      C1580   1.405       .  A
C1580      N1581   1.427       .  S
N1581      H1585   1.046       .  S
N1581      H1586   1.046       .  S
N1584      H1587   1.045       .  S
N1584      H1588   1.045       .  S
C1589      C1590   1.395       .  A
C1589      C1594   1.387       .  A
C1589      H1596   1.085       .  S
C1590      C1591   1.404       .  A
C1591      C1592   1.401       .  A
C1591      N1598   1.438       .  S
C1592      C1593   1.405       .  A
C1592      H1597   1.079       .  S
C1593      C1594   1.405       .  A
C1594      N1595   1.428       .  S
N1595      H1599   1.046       .  S
N1595      H1600   1.046       .  S
N1598      H1601   1.045       .  S
N1598      H1602   1.046       .  S
C1603      C1604   1.403       .  A
C1603      C1608   1.392       .  A
C1603      H1610   1.072       .  S
C1604      C1605   1.417       .  A
C1605      C1606   1.400       .  A
C1605      N1612   1.435       .  S
C1606      C1607   1.402       .  A
C1606      H1611   1.084       .  S
C1607      C1608   1.398       .  A
C1608      N1609   1.438       .  S
N1609      H1613   1.045       .  S
N1609      H1614   1.046       .  S
N1612      H1615   1.039       .  S
N1612      H1616   1.045       .  S
C1617      C1618   1.395       .  A
C1617      C1622   1.390       .  A
C1617      H1624   1.085       .  S
C1618      C1619   1.403       .  A
C1619      C1620   1.393       .  A
C1619      N1626   1.439       .  S
C1620      C1621   1.402       .  A
C1620      H1625   1.083       .  S
C1621      C1622   1.410       .  A
C1622      N1623   1.428       .  S
N1623      H1627   1.046       .  S
N1623      H1628   1.046       .  S
N1626      H1629   1.045       .  S
N1626      H1630   1.046       .  S
C1631      C1632   1.405       .  A
C1631      C1636   1.393       .  A
C1631      H1638   1.083       .  S
C1632      C1633   1.405       .  A
C1633      C1634   1.394       .  A
C1633      N1640   1.432       .  S
C1634      C1635   1.403       .  A
C1634      H1639   1.085       .  S
C1635      C1636   1.401       .  A
C1636      N1637   1.433       .  S
N1637      H1641   1.046       .  S
N1637      H1642   1.046       .  S
N1640      H1643   1.046       .  S
N1640      H1644   1.046       .  S
C1645      C1646   1.400       .  A
C1645      C1650   1.390       .  A
C1645      H1652   1.082       .  S
C1646      C1647   1.412       .  A
C1647      C1648   1.399       .  A
C1647      N1654   1.430       .  S
C1648      C1649   1.398       .  A
C1648      H1653   1.085       .  S
C1649      C1650   1.413       .  A
C1650      N1651   1.441       .  S
N1651      H1655   1.046       .  S
N1651      H1656   1.042       .  S
N1654      H1657   1.046       .  S
N1654      H1658   1.044       .  S
C1659      C1660   1.396       .  A
C1659      C1664   1.384       .  A
C1659      H1666   1.084       .  S
C1660      C1661   1.406       .  A
C1661      C1662   1.380       .  A
C1661      N1668   1.441       .  S
C1662      C1663   1.399       .  A
C1662      H1667   1.077       .  S
C1663      C1664   1.403       .  A
C1664      N1665   1.430       .  S
N1665      H1669   1.046       .  S
N1665      H1670   1.046       .  S
N1668      H1671   1.042       .  S
N1668      H1672   1.046       .  S
C1673      C1674   1.402       .  A
C1673      C1678   1.405       .  A
C1673      H1680   1.084       .  S
C1674      C1675   1.407       .  A
C1675      C1676   1.398       .  A
C1675      N1682   1.433       .  S
C1676      C1677   1.401       .  A
C1676      H1681   1.081       .  S
C1677      C1678   1.414       .  A
C1678      N1679   1.432       .  S
N1679      H1683   1.045       .  S
N1679      H1684   1.046       .  S
N1682      H1685   1.046       .  S
N1682      H1686   1.046       .  S
O1687     Zr1699   2.426       .  S
O1687      C1689   1.285       .  A
O1688     Zr1725   2.428       .  S
O1688      C1689   1.286       .  A
C1689      C2236   1.469       .  S
O1690      C1692   1.286       .  A
O1691     Zr1726   2.371       .  S
O1691      C1692   1.275       .  A
C1692      C2197   1.451       .  S
O1693     Zr1702   2.419       .  S
O1693      C1695   1.284       .  A
O1694     Zr1725   2.399       .  S
O1694      C1695   1.281       .  A
C1695      C2211   1.449       .  S
O1696      C1698   1.283       .  A
O1697     Zr1726   2.354       .  S
O1697      C1698   1.273       .  A
C1698      C2222   1.429       .  S
Zr1699     O1700   2.436       .  S
Zr1699     O1705   2.369       .  S
Zr1699     O1731   2.361       .  S
O1700      H1743   0.990       .  S
Zr1702     O1703   2.434       .  S
Zr1702     O1705   2.374       .  S
Zr1702     O1730   2.370       .  S
O1703      H1747   0.990       .  S
O1705     Zr1725   2.374       .  S
O1706     Zr1726   2.377       .  S
O1706      H1733   0.965       .  S
O1707     Zr1719   2.438       .  S
O1707      C1709   1.286       .  A
O1708     Zr1726   2.382       .  S
O1708      C1709   1.276       .  A
C1709      C2138   1.451       .  S
O1710      C1712   1.282       .  A
O1711     Zr1725   2.392       .  S
O1711      C1712   1.281       .  A
C1712      C2180   1.446       .  S
O1713     Zr1722   2.442       .  S
O1713      C1715   1.288       .  A
O1714     Zr1726   2.375       .  S
O1714      C1715   1.275       .  A
C1715      C2169   1.457       .  S
O1716      C1718   1.284       .  A
O1717     Zr1725   2.403       .  S
O1717      C1718   1.281       .  A
C1718      C2152   1.454       .  S
Zr1719     O1721   2.435       .  S
Zr1719     O1727   2.361       .  S
Zr1719     O1729   2.363       .  S
O1721      H1741   0.990   1_556  S
Zr1722     O1723   2.434       .  S
Zr1722     O1727   2.361       .  S
Zr1722     O1732   2.354       .  S
Zr1725     O1728   2.381       .  S
Zr1725     O1730   2.382       .  S
Zr1725     O1731   2.374       .  S
Zr1726     O1727   2.363       .  S
Zr1726     O1729   2.364       .  S
Zr1726     O1732   2.363       .  S
O1727      H1735   0.964       .  S
O1730      H1734   0.966       .  S
O1731      H1736   0.965       .  S
O1749     Zr1761   2.463       .  S
O1749      C1751   1.291       .  A
O1750     Zr1787   2.446       .  S
O1750      C1751   1.291       .  A
C1751      C2124   1.497       .  S
O1752      C1754   1.287       .  A
O1753     Zr1788   2.420   1_565  S
O1753      C1754   1.285       .  A
C1754      C2096   1.465       .  S
O1755     Zr1764   2.455       .  S
O1755      C1757   1.290       .  A
O1756     Zr1787   2.451       .  S
O1756      C1757   1.292       .  A
C1757      C2082   1.491       .  S
O1758      C1760   1.290       .  A
O1759     Zr1788   2.443   1_565  S
O1759      C1760   1.288       .  A
C1760      C2113   1.482       .  S
Zr1761     O1762   2.435       .  S
Zr1761     O1767   2.378       .  S
Zr1761     O1793   2.358   1_565  S
O1762      H1805   0.990       .  S
Zr1764     O1765   2.436       .  S
Zr1764     O1767   2.382       .  S
Zr1764     O1792   2.365       .  S
O1765      H1809   0.990       .  S
O1767     Zr1787   2.390       .  S
O1768     Zr1788   2.401   1_565  S
O1768      H1795   0.966       .  S
O1769     Zr1781   2.487       .  S
O1769      C1771   1.297       .  A
O1770      C1771   1.288       .  A
C1771      C2071   1.509       .  S
O1772      C1774   1.289       .  A
O1773      C1774   1.292       .  A
C1774      C2043   1.495       .  S
O1775     Zr1784   2.437       .  S
O1775      C1777   1.286       .  A
O1776      C1777   1.289       .  A
C1777      C2029   1.498       .  S
O1778      C1780   1.292       .  A
O1779      C1780   1.286       .  A
C1780      C2054   1.478       .  S
Zr1781     O1789   2.372       .  S
Zr1784     O1785   2.433       .  S
Zr1784     O1789   2.383       .  S
Zr1787     O1792   2.387       .  S
Zr1787     O1793   2.396   1_565  S
Zr1788     O1791   2.381   1_545  S
Zr1788     O1794   2.388       .  S
O1789      H1797   0.965       .  S
O1792      H1796   0.965       .  S
O1793      H1798   0.965       .  S
O1811     Zr1823   2.463       .  S
O1811      C1813   1.291       .  A
O1812     Zr1849   2.432   1_655  S
O1812      C1813   1.289       .  A
C1813      C2015   1.493       .  S
O1814      C1816   1.293       .  A
O1815     Zr1850   2.447   1_655  S
O1815      C1816   1.290       .  A
C1816      C1984   1.495       .  S
O1817     Zr1826   2.463       .  S
O1817      C1819   1.293       .  A
O1818     Zr1849   2.438   1_655  S
O1818      C1819   1.289       .  A
C1819      C1970   1.487       .  S
O1820      C1822   1.282       .  A
O1821     Zr1850   2.440   1_655  S
O1821      C1822   1.288       .  A
C1822      C1998   1.470       .  S
Zr1823     O1824   2.436       .  S
Zr1823     O1829   2.372       .  S
Zr1823     O1855   2.355   1_655  S
O1824      H1867   0.990       .  S
Zr1826     O1827   2.436       .  S
Zr1826     O1829   2.385       .  S
Zr1826     O1854   2.370   1_655  S
O1827      H1871   0.990       .  S
O1829     Zr1849   2.389   1_655  S
O1830     Zr1850   2.394   1_655  S
O1830      H1857   0.967       .  S
O1831     Zr1843   2.450       .  S
O1831      C1833   1.290       .  A
O1832     Zr1850   2.428       .  S
O1832      C1833   1.286       .  A
C1833      C1931   1.477       .  S
O1834      C1836   1.293       .  A
O1835     Zr1849   2.430       .  S
O1835      C1836   1.288       .  A
C1836      C1959   1.489       .  S
O1837     Zr1846   2.447   1_556  S
O1837      C1839   1.289       .  A
O1838     Zr1850   2.442       .  S
O1838      C1839   1.288       .  A
C1839      C1945   1.484       .  S
O1840      C1842   1.289       .  A
O1841     Zr1849   2.444       .  S
O1841      C1842   1.291       .  A
C1842      C1914   1.491       .  S
Zr1843     O1844   2.435       .  S
Zr1843     O1851   2.378       .  S
Zr1843     O1853   2.367       .  S
O1844      H1864   0.990       .  S
O1844      H1869   0.990   1_556  S
Zr1846     O1847   2.434   1_554  S
Zr1846     O1851   2.376   1_554  S
Zr1846     O1856   2.375   1_554  S
Zr1849     O1852   2.392       .  S
Zr1849     O1854   2.388       .  S
Zr1849     O1855   2.383       .  S
Zr1850     O1851   2.401       .  S
Zr1850     O1853   2.387       .  S
Zr1850     O1856   2.383       .  S
O1851      H1859   0.967       .  S
O1854      H1858   0.966   1_455  S
O1855      H1860   0.965       .  S
C1873      H1874   1.104       .  S
C1873      C1879   1.559       .  S
C1873      C1878   1.543       .  S
C1873      C1877   1.535       .  S
C1875      H1876   1.111       .  S
C1875      C1881   1.544       .  S
C1875      C1880   1.531       .  S
C1875      C1882   1.538       .  S
C1877      C1880   1.365       .  D
C1877      C2239   1.481       .  S
C1878      C1881   1.382       .  D
C1878      C1956   1.502       .  S
C1879      C1882   1.394       .  D
C1879      C2057   1.525       .  S
C1880      C2225   1.457       .  S
C1881      C1942   1.516       .  S
C1882      C2068   1.516       .  S
C1883      H1884   1.112       .  S
C1883      C1889   1.551       .  S
C1883      C1888   1.545       .  S
C1883      C1887   1.529       .  S
C1885      H1886   1.106       .  S
C1885      C1891   1.560       .  S
C1885      C1890   1.529       .  S
C1885      C1892   1.533       .  S
C1887      C1890   1.366       .  D
C1887      C2208   1.472       .  S
C1888      C1891   1.391       .  D
C1888      C2040   1.504       .  S
C1889      C1892   1.377       .  D
C1889      C1973   1.495       .  S
C1890      C2194   1.464       .  S
C1891      C2026   1.524       .  S
C1892      C1987   1.514       .  S
C1893      H1894   1.111       .  S
C1893      C1899   1.554       .  S
C1893      C1898   1.555       .  S
C1893      C1897   1.533       .  S
C1895      H1896   1.105       .  S
C1895      C1901   1.543       .  S
C1895      C1900   1.539       .  S
C1895      C1902   1.539       .  S
C1897      C1900   1.365       .  D
C1897      C2155   1.475       .  S
C1898      C1901   1.388       .  D
C1898      C2127   1.506       .  S
C1899      C1902   1.381       .  D
C1899      C1917   1.508       .  S
C1900      C2141   1.474       .  S
C1901      C2110   1.519       .  S
C1902      C1928   1.508       .  S
C1903      H1904   1.099       .  S
C1903      C1909   1.550       .  S
C1903      C1908   1.527       .  S
C1903      C1907   1.540       .  S
C1905      H1906   1.111       .  S
C1905      C1911   1.546       .  S
C1905      C1910   1.529       .  S
C1905      C1912   1.554       .  S
C1907      C1910   1.370       .  D
C1907      C2166   1.483       .  S
C1908      C1911   1.370       .  D
C1908      C2099   1.491       .  S
C1909      C1912   1.395       .  D
C1909      C2001   1.520       .  S
C1910      C2183   1.470       .  S
C1911      C2085   1.506       .  S
C1912      C2012   1.513       .  S
C1913      C1914   1.399       .  A
C1913      C1918   1.405       .  A
C1913      H1920   1.084       .  S
C1914      C1915   1.419       .  A
C1915      C1916   1.407       .  A
C1915      N1922   1.432       .  S
C1916      C1917   1.405       .  A
C1916      H1921   1.084       .  S
C1917      C1918   1.420       .  A
C1918      N1919   1.428       .  S
N1919      H1923   1.045       .  S
N1919      H1924   1.046       .  S
N1922      H1925   1.046       .  S
N1922      H1926   1.044       .  S
C1927      C1928   1.409       .  A
C1927      C1932   1.393       .  A
C1927      H1934   1.075       .  S
C1928      C1929   1.416       .  A
C1929      C1930   1.420       .  A
C1929      N1936   1.436       .  S
C1930      C1931   1.409       .  A
C1930      H1935   1.083       .  S
C1931      C1932   1.401       .  A
C1932      N1933   1.440       .  S
N1933      H1937   1.046       .  S
N1933      H1938   1.046       .  S
N1936      H1939   1.045       .  S
N1936      H1940   1.045       .  S
C1941      C1942   1.411       .  A
C1941      C1946   1.386       .  A
C1941      H1948   1.071       .  S
C1942      C1943   1.422       .  A
C1943      C1944   1.417       .  A
C1943      N1950   1.436       .  S
C1944      C1945   1.409       .  A
C1944      H1949   1.076       .  S
C1945      C1946   1.404       .  A
C1946      N1947   1.435       .  S
N1947      H1951   1.044       .  S
N1947      H1952   1.046       .  S
N1950      H1953   1.043       .  S
N1950      H1954   1.045       .  S
C1955      C1956   1.405       .  A
C1955      C1960   1.408       .  A
C1955      H1962   1.084       .  S
C1956      C1957   1.416       .  A
C1957      C1958   1.408       .  A
C1957      N1964   1.429       .  S
C1958      C1959   1.402       .  A
C1958      H1963   1.084       .  S
C1959      C1960   1.410       .  A
C1960      N1961   1.432       .  S
N1961      H1965   1.046       .  S
N1961      H1966   1.045       .  S
N1964      H1967   1.046       .  S
N1964      H1968   1.045       .  S
C1969      C1970   1.404       .  A
C1969      C1974   1.404       .  A
C1969      H1976   1.084       .  S
C1970      C1971   1.414       .  A
C1971      C1972   1.405       .  A
C1971      N1978   1.432       .  S
C1972      C1973   1.408       .  A
C1972      H1977   1.083       .  S
C1973      C1974   1.416       .  A
C1974      N1975   1.436       .  S
N1975      H1979   1.045       .  S
N1975      H1980   1.043       .  S
N1978      H1981   1.046       .  S
N1978      H1982   1.045       .  S
C1983      C1984   1.408       .  A
C1983      C1988   1.416       .  A
C1983      H1990   1.077       .  S
C1984      C1985   1.407       .  A
C1985      C1986   1.401       .  A
C1985      N1992   1.433       .  S
C1986      C1987   1.411       .  A
C1986      H1991   1.074       .  S
C1987      C1988   1.419       .  A
C1988      N1989   1.437       .  S
N1989      H1993   1.045       .  S
N1989      H1994   1.043       .  S
N1992      H1995   1.046       .  S
N1992      H1996   1.045       .  S
C1997      C1998   1.405       .  A
C1997      C2002   1.419       .  A
C1997      H2004   1.082       .  S
C1998      C1999   1.401       .  A
C1999      C2000   1.388       .  A
C1999      N2006   1.443       .  S
C2000      C2001   1.414       .  A
C2000      H2005   1.068       .  S
C2001      C2002   1.421       .  A
C2002      N2003   1.435       .  S
N2003      H2007   1.046       .  S
N2003      H2008   1.045       .  S
N2006      H2009   1.045       .  S
N2006      H2010   1.046       .  S
C2011      C2012   1.407       .  A
C2011      C2016   1.406       .  A
C2011      H2018   1.084       .  S
C2012      C2013   1.428       .  A
C2013      C2014   1.398       .  A
C2013      N2020   1.425       .  S
C2014      C2015   1.398       .  A
C2014      H2019   1.084       .  S
C2015      C2016   1.417       .  A
C2016      N2017   1.431       .  S
N2017      H2021   1.043       .  S
N2017      H2022   1.046       .  S
N2020      H2023   1.034       .  S
N2020      H2024   1.040       .  S
C2025      C2026   1.403       .  A
C2025      C2030   1.397       .  A
C2025      H2032   1.082       .  S
C2026      C2027   1.419       .  A
C2027      C2028   1.409       .  A
C2027      N2034   1.435       .  S
C2028      C2029   1.409       .  A
C2028      H2033   1.083       .  S
C2029      C2030   1.417       .  A
C2030      N2031   1.431       .  S
N2031      H2035   1.046       .  S
N2031      H2036   1.046       .  S
N2034      H2037   1.044       .  S
N2034      H2038   1.043       .  S
C2039      C2040   1.412       .  A
C2039      C2044   1.416       .  A
C2039      H2046   1.082       .  S
C2040      C2041   1.415       .  A
C2041      C2042   1.404       .  A
C2041      N2048   1.436       .  S
C2042      C2043   1.406       .  A
C2042      H2047   1.084       .  S
C2043      C2044   1.412       .  A
C2044      N2045   1.438       .  S
N2045      H2049   1.045       .  S
N2045      H2050   1.045       .  S
N2048      H2051   1.042       .  S
N2048      H2052   1.045       .  S
C2053      C2054   1.385       .  A
C2053      C2058   1.388       .  A
C2053      H2060   1.086       .  S
C2054      C2055   1.412       .  A
C2055      C2056   1.420       .  A
C2055      N2062   1.437       .  S
C2056      C2057   1.416       .  A
C2056      H2061   1.082       .  S
C2057      C2058   1.430       .  A
C2058      N2059   1.426       .  S
N2059      H2063   1.045       .  S
N2059      H2064   1.046       .  S
N2062      H2065   1.046       .  S
N2062      H2066   1.045       .  S
C2067      C2068   1.410       .  A
C2067      C2072   1.413       .  A
C2067      H2074   1.083       .  S
C2068      C2069   1.423       .  A
C2069      C2070   1.411       .  A
C2069      N2076   1.438       .  S
C2070      C2071   1.406       .  A
C2070      H2075   1.084       .  S
C2071      C2072   1.422       .  A
C2072      N2073   1.432       .  S
N2073      H2077   1.045       .  S
N2073      H2078   1.045       .  S
N2076      H2079   1.044       .  S
N2076      H2080   1.045       .  S
C2081      C2082   1.398       .  A
C2081      C2086   1.405       .  A
C2081      H2088   1.084       .  S
C2082      C2083   1.416       .  A
C2083      C2084   1.415       .  A
C2083      N2090   1.437       .  S
C2084      C2085   1.405       .  A
C2084      H2089   1.084       .  S
C2085      C2086   1.419       .  A
C2086      N2087   1.429       .  S
N2087      H2091   1.045       .  S
N2087      H2092   1.046       .  S
N2090      H2093   1.046       .  S
N2090      H2094   1.046       .  S
C2095      C2096   1.393       .  A
C2095      C2100   1.393       .  A
C2095      H2102   1.085       .  S
C2096      C2097   1.417       .  A
C2097      C2098   1.407       .  A
C2097      N2104   1.436       .  S
C2098      C2099   1.403       .  A
C2098      H2103   1.084       .  S
C2099      C2100   1.414       .  A
C2100      N2101   1.430       .  S
N2101      H2105   1.046       .  S
N2101      H2106   1.046       .  S
N2104      H2107   1.043       .  S
N2104      H2108   1.044       .  S
C2109      C2110   1.409       .  A
C2109      C2114   1.389       .  A
C2109      H2116   1.069       .  S
C2110      C2111   1.417       .  A
C2111      C2112   1.422       .  A
C2111      N2118   1.431       .  S
C2112      C2113   1.410       .  A
C2112      H2117   1.083       .  S
C2113      C2114   1.397       .  A
C2114      N2115   1.434       .  S
N2115      H2119   1.044       .  S
N2115      H2120   1.046       .  S
N2118      H2121   1.046       .  S
N2118      H2122   1.045       .  S
C2123      C2124   1.403       .  A
C2123      C2128   1.408       .  A
C2123      H2130   1.084       .  S
C2124      C2125   1.416       .  A
C2125      C2126   1.413       .  A
C2125      N2132   1.437       .  S
C2126      C2127   1.406       .  A
C2126      H2131   1.084       .  S
C2127      C2128   1.418       .  A
C2128      N2129   1.431       .  S
N2129      H2133   1.045       .  S
N2129      H2134   1.046       .  S
N2132      H2135   1.045       .  S
N2132      H2136   1.046       .  S
C2137      C2138   1.398       .  A
C2137      C2142   1.397       .  A
C2137      H2144   1.082       .  S
C2138      C2139   1.405       .  A
C2139      C2140   1.392       .  A
C2139      N2146   1.433       .  S
C2140      C2141   1.400       .  A
C2140      H2145   1.083       .  S
C2141      C2142   1.406       .  A
C2142      N2143   1.429       .  S
N2143      H2147   1.046       .  S
N2143      H2148   1.045       .  S
N2146      H2149   1.045       .  S
N2146      H2150   1.045       .  S
C2151      C2152   1.396       .  A
C2151      C2156   1.388       .  A
C2151      H2158   1.085       .  S
C2152      C2153   1.406       .  A
C2153      C2154   1.403       .  A
C2153      N2160   1.438       .  S
C2154      C2155   1.406       .  A
C2154      H2159   1.079       .  S
C2155      C2156   1.405       .  A
C2156      N2157   1.428       .  S
N2157      H2161   1.045       .  S
N2157      H2162   1.046       .  S
N2160      H2163   1.045       .  S
N2160      H2164   1.045       .  S
C2165      C2166   1.404       .  A
C2165      C2170   1.393       .  A
C2165      H2172   1.071       .  S
C2166      C2167   1.416       .  A
C2167      C2168   1.398       .  A
C2167      N2174   1.435       .  S
C2168      C2169   1.402       .  A
C2168      H2173   1.084       .  S
C2169      C2170   1.398       .  A
C2170      N2171   1.438       .  S
N2171      H2175   1.045       .  S
N2171      H2176   1.046       .  S
N2174      H2177   1.039       .  S
N2174      H2178   1.045       .  S
C2179      C2180   1.396       .  A
C2179      C2184   1.392       .  A
C2179      H2186   1.085       .  S
C2180      C2181   1.404       .  A
C2181      C2182   1.395       .  A
C2181      N2188   1.439       .  S
C2182      C2183   1.403       .  A
C2182      H2187   1.082       .  S
C2183      C2184   1.409       .  A
C2184      N2185   1.428       .  S
N2185      H2189   1.046       .  S
N2185      H2190   1.046       .  S
N2188      H2191   1.045       .  S
N2188      H2192   1.046       .  S
C2193      C2194   1.402       .  A
C2193      C2198   1.390       .  A
C2193      H2200   1.083       .  S
C2194      C2195   1.406       .  A
C2195      C2196   1.395       .  A
C2195      N2202   1.433       .  S
C2196      C2197   1.404       .  A
C2196      H2201   1.085       .  S
C2197      C2198   1.400       .  A
C2198      N2199   1.433       .  S
N2199      H2203   1.046       .  S
N2199      H2204   1.046       .  S
N2202      H2205   1.046       .  S
N2202      H2206   1.046       .  S
C2207      C2208   1.400       .  A
C2207      C2212   1.389       .  A
C2207      H2214   1.081       .  S
C2208      C2209   1.410       .  A
C2209      C2210   1.396       .  A
C2209      N2216   1.430       .  S
C2210      C2211   1.398       .  A
C2210      H2215   1.085       .  S
C2211      C2212   1.412       .  A
C2212      N2213   1.440       .  S
N2213      H2217   1.046       .  S
N2213      H2218   1.042       .  S
N2216      H2219   1.046       .  S
N2216      H2220   1.045       .  S
C2221      C2222   1.395       .  A
C2221      C2226   1.388       .  A
C2221      H2228   1.083       .  S
C2222      C2223   1.402       .  A
C2223      C2224   1.380       .  A
C2223      N2230   1.434       .  S
C2224      C2225   1.400       .  A
C2224      H2229   1.079       .  S
C2225      C2226   1.407       .  A
C2226      N2227   1.430       .  S
N2227      H2231   1.046       .  S
N2227      H2232   1.046       .  S
N2230      H2233   1.045       .  S
N2230      H2234   1.046       .  S
C2235      C2236   1.400       .  A
C2235      C2240   1.403       .  A
C2235      H2242   1.084       .  S
C2236      C2237   1.408       .  A
C2237      C2238   1.399       .  A
C2237      N2244   1.433       .  S
C2238      C2239   1.400       .  A
C2238      H2243   1.082       .  S
C2239      C2240   1.413       .  A
C2240      N2241   1.432       .  S
N2241      H2245   1.045       .  S
N2241      H2246   1.046       .  S
N2244      H2247   1.046       .  S
N2244      H2248   1.046       .  S
