geometry optimzed in LAMMPS
_audit_creation_date              2020-11-30 
_audit_creation_method            'lammps2cif' 
_symmetry_space_group_name_H-M    'P1' 
_symmetry_Int_Tables_number       1 
_symmetry_cell_setting            triclinic 
loop_ 
_symmetry_equiv_pos_as_xyz 
  x,y,z 
_cell_length_a                    38.43979835 
_cell_length_b                    38.40936866908689 
_cell_length_c                    29.732673459251885 
_cell_angle_alpha                 90.00061099435062 
_cell_angle_beta                  89.99720969784416 
_cell_angle_gamma                 120.57853705488871 
loop_ 
_atom_site_label 
_atom_site_type_symbol 
_atom_site_fract_x 
_atom_site_fract_y 
_atom_site_fract_z 
_atom_site_charge 
C1          C  0.39965614  0.99577597  0.99993084     0.80700
N2          N  0.38602017  0.00224961  0.29470269    -0.77600
C3          C  0.35020378  0.50128078  0.29404500     0.83200
N4          N  0.33199935  0.50131985  0.33361350    -0.77500
C5          C  0.34873629  0.49890630  0.03975563     0.83200
N6          N  0.38293283  0.99693891  0.03910695    -0.79300
In7        In  0.31005667  0.50080977  0.16693488     1.36900
C8          C  0.25977878  0.42128934  0.16744058     0.78100
O9          O  0.30063046  0.00000380  0.09163843    -0.60400
O10         O  0.35273107  0.50089204  0.11890750    -0.51300
C11         C  0.33797546  0.07994040  0.16599270     0.70700
O12         O  0.29996243  0.05452374  0.16644572    -0.46100
C13         C  0.33402530  0.50146464  0.24954199     0.75400
O14         O  0.24645569  0.44578922  0.16715374    -0.58000
O15         O  0.35345694  0.50213259  0.21484857    -0.48100
O16         O  0.29779886  0.43807163  0.16757247    -0.54400
C17         C  0.33314072  0.50006997  0.08428754     0.85600
O18         O  0.35990173  0.06421323  0.16597006    -0.56300
O19         O  0.30135625  0.00098028  0.24234347    -0.59600
C20         C  0.04591629  0.36178078  0.99974365     0.80700
N21         N  0.04554745  0.34421933  0.03891239    -0.77600
C22         C  0.04485778  0.30865048  0.03954738     0.83200
N23         N  0.04443055  0.29022084  0.99996090    -0.77500
C24         C  0.04213431  0.30682042  0.29387286     0.83200
N25         N  0.04114113  0.34153148  0.29457505    -0.79300
In26       In  0.04313756  0.26776323  0.16659557     1.36900
C27         C  0.12220085  0.29564244  0.16724710     0.78100
O28         O  0.04337006  0.25904331  0.09122221    -0.60400
O29         O  0.04459920  0.31131756  0.11875296    -0.51300
C30         C  0.46361473  0.21752845  0.16598060     0.70700
O31         O  0.48806324  0.20415312  0.16597595    -0.46100
C32         C  0.04271218  0.29092319  0.24931149     0.75400
O33         O  0.09677942  0.25760395  0.16683286    -0.58000
O34         O  0.04326633  0.31042082  0.21471152    -0.48100
O35         O  0.10648842  0.31759333  0.16741171    -0.54400
C36         C  0.04427619  0.29206171  0.08403663     0.85600
O37         O  0.48044435  0.25558149  0.16624144    -0.56300
O38         O  0.04253561  0.25828856  0.24192877    -0.59600
C39         C  0.35202020  0.18623608  0.16581195     0.03600
C40         C  0.33357637  0.14357983  0.16570674    -0.12500
C41         C  0.35690917  0.12486382  0.16567443     0.01100
C42         C  0.39948090  0.14938805  0.16561341    -0.11100
C43         C  0.41861229  0.19174434  0.16576723     0.03600
C44         C  0.39448734  0.20990738  0.16588355    -0.10500
H45         H  0.30094459  0.12479644  0.16575984     0.09200
H46         H  0.41794949  0.13550123  0.16558904     0.06700
H47         H  0.40873361  0.24254848  0.16604895     0.06600
C48         C  0.22842985  0.30963568  0.16764279     0.03600
C49         C  0.18579934  0.29119162  0.16757509    -0.12500
C50         C  0.16710708  0.31456410  0.16745815     0.01100
C51         C  0.19164704  0.35716700  0.16744658    -0.11100
C52         C  0.23397000  0.37627529  0.16755094     0.03600
C53         C  0.25209417  0.35212055  0.16764856    -0.10500
H54         H  0.16702442  0.25853557  0.16755315     0.09200
H55         H  0.17779885  0.37567537  0.16731842     0.06700
H56         H  0.28470895  0.36636020  0.16766992     0.06600
C57         C  0.17959139  0.14181441  0.99992367     0.80700
N58         N  0.20062627  0.15588394  0.29466852    -0.77600
C59         C  0.23570791  0.19182254  0.29398415     0.83200
N60         N  0.25273443  0.21135367  0.00018216    -0.77500
C61         C  0.23388056  0.19348184  0.03977013     0.83200
N62         N  0.19752176  0.15886242  0.03911174    -0.79300
In63       In  0.27523529  0.23291504  0.16684643     1.36900
C64         C  0.24723019  0.28377796  0.16751612     0.78100
O65         O  0.28389141  0.24197752  0.09147358    -0.60400
O66         O  0.23156098  0.19012410  0.11900517    -0.51300
C67         C  0.32614620  0.20501281  0.16601045     0.70700
O68         O  0.33925281  0.24302756  0.16660968    -0.46100
C69         C  0.25180390  0.20849522  0.24945274     0.75400
O70         O  0.28522853  0.29693917  0.16737560    -0.58000
O71         O  0.23246594  0.18928421  0.21475446    -0.48100
O72         O  0.22529589  0.24572717  0.16743826    -0.54400
C73         C  0.25076494  0.20942828  0.08428160     0.85600
O74         O  0.28812511  0.18302293  0.16567210    -0.56300
O75         O  0.28441451  0.24153538  0.24221648    -0.59600
C76         C  0.04261316  0.46474173  0.99962442     0.80700
N77         N  0.07714072  0.00122294  0.99975614    -0.77600
C78         C  0.07505092  0.03529613  0.99966433     0.83200
N79         N  0.03884561  0.03310479  0.99960415    -0.77500
C80         C  0.00456937  0.99652640  0.99963599     0.83200
N81         N  0.00625037  0.46226079  0.99959864    -0.79700
C82         C  0.14204256  0.10511817  0.99977454    -0.12800
C83         C  0.11104432  0.07347149  0.99968310    -0.14300
C84         C  0.04460651  0.42897751  0.99963060    -0.12800
C85         C  0.04570259  0.39848680  0.99964278    -0.14300
C86         C  0.43566877  0.99431287  0.99977312    -0.12800
C87         C  0.46680011  0.99450599  0.99967747    -0.14300
C88         C  0.40336183  0.00226040  0.33389946     0.80700
N89         N  0.38442014  0.00029126  0.62752044    -0.77600
C90         C  0.34996768  0.50166373  0.62705814     0.83200
N91         N  0.33183920  0.50160176  0.66672090    -0.77500
C92         C  0.34990993  0.50108586  0.37332311     0.83200
N93         N  0.38574449  0.00210306  0.37293688    -0.79300
In94       In  0.30956376  0.50094827  0.50013865     1.36900
C95         C  0.25938577  0.42137022  0.50032166     0.78100
O96         O  0.30094396  0.00098109  0.42467267    -0.60400
O97         O  0.35271268  0.50159813  0.45247943    -0.51300
C98         C  0.33765464  0.08009161  0.50019290     0.70700
O99         O  0.29961474  0.05476392  0.49992818    -0.46100
C100        C  0.33351536  0.50151903  0.58264419     0.75400
O101        O  0.24597234  0.44579818  0.50025478    -0.58000
O102        O  0.35272585  0.50183373  0.54791622    -0.48100
O103        O  0.29740734  0.43824899  0.50028366    -0.54400
C104        C  0.33351168  0.50118110  0.41769776     0.85600
O105        O  0.35947642  0.06425187  0.50046196    -0.56300
O106        O  0.30055391  0.00077201  0.57546201    -0.59600
C107        C  0.04065174  0.35861192  0.33376994     0.80700
N108        N  0.04132353  0.34140116  0.37278013    -0.77600
C109        C  0.04232566  0.30670061  0.37316085     0.83200
N110        N  0.04267436  0.28883295  0.33343607    -0.77500
C111        C  0.04208126  0.30679792  0.62717330     0.83200
N112        N  0.04089813  0.34140539  0.62763439    -0.79300
In113      In  0.04304943  0.26722232  0.50023211     1.36900
C114        C  0.12208999  0.29535473  0.50048425     0.78100
O115        O  0.04243510  0.25781738  0.42484062    -0.60400
O116        O  0.04391717  0.31025752  0.45226896    -0.51300
C117        C  0.46357256  0.21735044  0.50010616     0.70700
O118        O  0.48785018  0.20376204  0.50021604    -0.46100
C119        C  0.04278422  0.29076791  0.58275760     0.75400
O120        O  0.09680237  0.25728015  0.50057352    -0.58000
O121        O  0.04369989  0.31030169  0.54804074    -0.48100
O122        O  0.10625106  0.31718544  0.50024969    -0.54400
C123        C  0.04300544  0.29067249  0.41759908     0.85600
O124        O  0.48054881  0.25541736  0.50001855    -0.56300
O125        O  0.04227299  0.25793209  0.57561015    -0.59600
C126        C  0.35217285  0.18658594  0.50017918     0.03600
C127        C  0.33356547  0.14390969  0.50017397    -0.12500
C128        C  0.35674158  0.12503260  0.50016208     0.01100
C129        C  0.39931520  0.14941096  0.50012730    -0.11100
C130        C  0.41858963  0.19176892  0.50010760     0.03600
C131        C  0.39463640  0.21011282  0.50012951    -0.10500
H132        H  0.30092477  0.12523129  0.50020366     0.09200
H133        H  0.41767632  0.13540625  0.50011198     0.06700
H134        H  0.40900588  0.24276587  0.50013434     0.06600
C135        C  0.22844511  0.30981411  0.50043847     0.03600
C136        C  0.18581490  0.29122089  0.50056565    -0.12500
C137        C  0.16698918  0.31445426  0.50058692     0.01100
C138        C  0.19137583  0.35707391  0.50056750    -0.11100
C139        C  0.23370532  0.37633601  0.50043656     0.03600
C140        C  0.25197500  0.35231001  0.50037525    -0.10500
H141        H  0.16714134  0.25855494  0.50058649     0.09200
H142        H  0.17740654  0.37547146  0.50059943     0.06700
H143        H  0.28459929  0.36665832  0.50025073     0.06600
C144        C  0.18323916  0.13830222  0.33386386     0.80700
N145        N  0.19971861  0.15704948  0.62766659    -0.77600
C146        C  0.23517099  0.19263801  0.62719973     0.83200
N147        N  0.25375534  0.21056469  0.33355913    -0.77500
C148        C  0.23564275  0.19228095  0.37328506     0.83200
N149        N  0.20054538  0.15635994  0.37289549    -0.79300
In150      In  0.27562545  0.23347344  0.50024732     1.36900
C151        C  0.24737466  0.28408633  0.50031246     0.78100
O152        O  0.28450724  0.24223712  0.42480703    -0.60400
O153        O  0.23261845  0.19004943  0.45247685    -0.51300
C154        C  0.32643896  0.20549980  0.50025732     0.70700
O155        O  0.33963404  0.24354076  0.50012624    -0.46100
C156        C  0.25162348  0.20929728  0.58276753     0.75400
O157        O  0.28539756  0.29738204  0.50035646    -0.58000
O158        O  0.23244540  0.19012166  0.54798701    -0.48100
O159        O  0.22553727  0.24602331  0.50016337    -0.54400
C160        C  0.25185214  0.20919144  0.41770510     0.85600
O161        O  0.28842098  0.18356985  0.50045118    -0.56300
O162        O  0.28440794  0.24222516  0.57567827    -0.59600
C163        C  0.04029351  0.46311403  0.33448040     0.80700
N164        N  0.07593008  0.99771830  0.33437786    -0.77600
C165        C  0.07704979  0.03344545  0.33434930     0.83200
N166        N  0.04243869  0.03448082  0.33433425    -0.77500
C167        C  0.00652730  0.99945995  0.33439077     0.83200
N168        N  0.00522884  0.46330960  0.33447137    -0.79700
C169        C  0.14623447  0.10108779  0.33404401    -0.12800
C170        C  0.11468756  0.07000973  0.33421212    -0.14300
C171        C  0.03959974  0.42594687  0.33427894    -0.12800
C172        C  0.03978288  0.39497774  0.33399714    -0.14300
C173        C  0.43985728  0.00168535  0.33407974    -0.12800
C174        C  0.47040610  0.00073825  0.33423983    -0.14300
C175        C  0.40166650  0.99984631  0.66660063     0.80700
N176        N  0.38276974  0.99696308  0.96089584    -0.77600
C177        C  0.34855546  0.49890528  0.96046741     0.83200
N178        N  0.33101555  0.49987467  0.00017803    -0.77500
C179        C  0.34998739  0.50156203  0.70632784     0.83200
N180        N  0.38442805  0.00017045  0.70573499    -0.79300
In181      In  0.30969807  0.50077181  0.83340916     1.36900
C182        C  0.25961531  0.42123799  0.83310862     0.78100
O183        O  0.30057318  0.00048154  0.75806198    -0.60400
O184        O  0.35298148  0.50195296  0.78549312    -0.51300
C185        C  0.33777971  0.07983769  0.83379082     0.70700
O186        O  0.29974109  0.05451708  0.83355773    -0.46100
C187        C  0.33285621  0.50013585  0.91602372     0.75400
O188        O  0.24617486  0.44564414  0.83324079    -0.58000
O189        O  0.35243905  0.50104615  0.88136092    -0.48100
O190        O  0.29764464  0.43812219  0.83303686    -0.54400
C191        C  0.33362365  0.50143644  0.75080506     0.85600
O192        O  0.35961284  0.06400540  0.83391976    -0.56300
O193        O  0.30028729  0.99999121  0.90881104    -0.59600
C194        C  0.04032419  0.35860808  0.66670621     0.80700
N195        N  0.04110554  0.34161156  0.70585983    -0.77600
C196        C  0.04225463  0.30697895  0.70644372     0.83200
N197        N  0.04268907  0.28901682  0.66683982    -0.77500
C198        C  0.04480136  0.30847397  0.96026496     0.83200
N199        N  0.04549396  0.34404847  0.96068215    -0.79300
In200      In  0.04319505  0.26737969  0.83340504     1.36900
C201        C  0.12226767  0.29528750  0.83302198     0.78100
O202        O  0.04268606  0.25828547  0.75804309    -0.60400
O203        O  0.04356115  0.31037548  0.78561070    -0.51300
C204        C  0.46364737  0.21722421  0.83371465     0.70700
O205        O  0.48802841  0.20376736  0.83349677    -0.46100
C206        C  0.04420397  0.29172821  0.91587302     0.75400
O207        O  0.09689052  0.25723190  0.83322864    -0.58000
O208        O  0.04457480  0.31092326  0.88109098    -0.48100
O209        O  0.10649633  0.31717620  0.83291462    -0.54400
C210        C  0.04293730  0.29098667  0.75089129     0.85600
O211        O  0.48054687  0.25527827  0.83391143    -0.56300
O212        O  0.04325940  0.25866834  0.90881893    -0.59600
C213        C  0.35216717  0.18625498  0.83368844     0.03600
C214        C  0.33360556  0.14359044  0.83379910    -0.12500
C215        C  0.35683443  0.12476683  0.83382974     0.01100
C216        C  0.39941237  0.14918459  0.83381002    -0.11100
C217        C  0.41864728  0.19154387  0.83370958     0.03600
C218        C  0.39463162  0.20982143  0.83359989    -0.10500
H219        H  0.30096647  0.12488580  0.83383931     0.09200
H220        H  0.41780396  0.13521354  0.83385540     0.06700
H221        H  0.40896107  0.24247058  0.83348391     0.06600
C222        C  0.22867590  0.30971214  0.83298663     0.03600
C223        C  0.18602763  0.29111115  0.83293214    -0.12500
C224        C  0.16719018  0.31434115  0.83297197     0.01100
C225        C  0.19160296  0.35696103  0.83303692    -0.11100
C226        C  0.23393582  0.37621499  0.83305699     0.03600
C227        C  0.25220705  0.35219858  0.83305116    -0.10500
H228        H  0.16735115  0.25844601  0.83289500     0.09200
H229        H  0.17764930  0.37537259  0.83308124     0.06700
H230        H  0.28483160  0.36654511  0.83310498     0.06600
C231        C  0.18220858  0.13926155  0.66674434     0.80700
N232        N  0.19779853  0.15893064  0.96087382    -0.77600
C233        C  0.23416348  0.19354203  0.96046526     0.83200
N234        N  0.25346762  0.21083411  0.66687895    -0.77500
C235        C  0.23525968  0.19237426  0.70649823     0.83200
N236        N  0.19981008  0.15676402  0.70590845    -0.79300
In237      In  0.27570159  0.23323956  0.83347883     1.36900
C238        C  0.24761322  0.28399135  0.83306433     0.78100
O239        O  0.28452899  0.24184054  0.75805834    -0.60400
O240        O  0.23253536  0.18977372  0.78574773    -0.51300
C241        C  0.32642019  0.20515527  0.83367785     0.70700
O242        O  0.33964508  0.24319737  0.83346698    -0.46100
C243        C  0.25126522  0.20957106  0.91604387     0.75400
O244        O  0.28563495  0.29724953  0.83327422    -0.58000
O245        O  0.23220964  0.19027892  0.88126510    -0.48100
O246        O  0.22574907  0.24594062  0.83298004    -0.54400
C247        C  0.25172902  0.20893314  0.75096400     0.85600
O248        O  0.28839413  0.18324788  0.83387766    -0.56300
O249        O  0.28434930  0.24219120  0.90894657    -0.59600
C250        C  0.03991724  0.46311645  0.66630756     0.80700
N251        N  0.07593572  0.99844559  0.66615575    -0.77600
C252        C  0.07638557  0.03385201  0.66627150     0.83200
N253        N  0.04140971  0.03419487  0.66644401    -0.77500
C254        C  0.00581709  0.99882661  0.66648036     0.83200
N255        N  0.00491689  0.46344640  0.66647014    -0.79700
C256        C  0.14509718  0.10208996  0.66661812    -0.12800
C257        C  0.11370783  0.07081273  0.66641039    -0.14300
C258        C  0.03909095  0.42586908  0.66641369    -0.12800
C259        C  0.03929361  0.39490159  0.66658987    -0.14300
C260        C  0.43797932  0.99890226  0.66655602    -0.12800
C261        C  0.46874819  0.99835991  0.66656029    -0.14300
C262        C  0.39953287  0.49563662  0.99990758     0.80700
N263        N  0.38518404  0.50085232  0.29471422    -0.77600
C264        C  0.35074161  0.00209546  0.29403220     0.83200
N265        N  0.33240072  0.00186191  0.33359896    -0.77500
C266        C  0.34880672  0.99895561  0.03977226     0.83200
N267        N  0.38284149  0.49685035  0.03908695    -0.79300
In268      In  0.31014420  0.00087865  0.16695699     1.36900
C269        C  0.25984967  0.92134512  0.16759147     0.78100
O270        O  0.30055634  0.49994446  0.09162000    -0.60400
O271        O  0.35276704  0.00087476  0.11892286    -0.51300
C272        C  0.33793209  0.57987659  0.16606053     0.70700
O273        O  0.29991540  0.55447575  0.16643743    -0.46100
C274        C  0.33434741  0.00188049  0.24953655     0.75400
O275        O  0.24653465  0.94585037  0.16727463    -0.58000
O276        O  0.35369203  0.00241693  0.21482227    -0.48100
O277        O  0.29786988  0.93812760  0.16772479    -0.54400
C278        C  0.33319521  0.00009117  0.08430387     0.85600
O279        O  0.35984360  0.56413219  0.16611011    -0.56300
O280        O  0.30111341  0.50071831  0.24231586    -0.59600
C281        C  0.04608220  0.86186367  0.99981697     0.80700
N282        N  0.04571016  0.84428069  0.03897045    -0.77600
C283        C  0.04498395  0.80869396  0.03957807     0.83200
N284        N  0.04451975  0.79026550  0.99997805    -0.77500
C285        C  0.04174839  0.80658197  0.29386529     0.83200
N286        N  0.04041874  0.84111390  0.29456181    -0.79300
In287      In  0.04316207  0.76772652  0.16660637     1.36900
C288        C  0.12225077  0.79566752  0.16735991     0.78100
O289        O  0.04343985  0.75903920  0.09122655    -0.60400
O290        O  0.04468414  0.81131336  0.11878016    -0.51300
C291        C  0.46360926  0.71743862  0.16592723     0.70700
O292        O  0.48805413  0.70405624  0.16596739    -0.46100
C293        C  0.04253868  0.79079042  0.24931123     0.75400
O294        O  0.09684460  0.75762550  0.16686885    -0.58000
O295        O  0.04313775  0.81030940  0.21471102    -0.48100
O296        O  0.10651393  0.81759671  0.16757437    -0.54400
C297        C  0.04437113  0.79207224  0.08405606     0.85600
O298        O  0.48044760  0.75549183  0.16613557    -0.56300
O299        O  0.04247236  0.75820991  0.24193521    -0.59600
C300        C  0.35201510  0.68618737  0.16584702     0.03600
C301        C  0.33356051  0.64353015  0.16576638    -0.12500
C302        C  0.35688196  0.62480093  0.16572620     0.01100
C303        C  0.39945477  0.64931065  0.16562458    -0.11100
C304        C  0.41860139  0.69166772  0.16574362     0.03600
C305        C  0.39448622  0.70984529  0.16587573    -0.10500
H306        H  0.30092810  0.62475575  0.16584558     0.09200
H307        H  0.41791231  0.63541176  0.16559001     0.06700
H308        H  0.40874343  0.74248745  0.16602234     0.06600
C309        C  0.22849217  0.80968325  0.16770193     0.03600
C310        C  0.18586163  0.79124078  0.16764579    -0.12500
C311        C  0.16716446  0.81460864  0.16758434     0.01100
C312        C  0.19170518  0.85721430  0.16761408    -0.11100
C313        C  0.23403309  0.87632617  0.16770581     0.03600
C314        C  0.25215682  0.85216904  0.16775547    -0.10500
H315        H  0.16708714  0.75858440  0.16758626     0.09200
H316        H  0.17785384  0.87571941  0.16751672     0.06700
H317        H  0.28477153  0.86640738  0.16776356     0.06600
C318        C  0.17961702  0.64173578  0.99991225     0.80700
N319        N  0.20020687  0.65628167  0.29467183    -0.77600
C320        C  0.23549105  0.69202856  0.29398140     0.83200
N321        N  0.25272595  0.71131560  0.00018029    -0.77500
C322        C  0.23387857  0.69343217  0.03976666     0.83200
N323        N  0.19753482  0.65879263  0.03910464    -0.79300
In324      In  0.27524478  0.73290891  0.16683981     1.36900
C325        C  0.24728323  0.78381450  0.16751985     0.78100
O326        O  0.28387274  0.74195825  0.09146172    -0.60400
O327        O  0.23156715  0.69009166  0.11900691    -0.51300
C328        C  0.32614645  0.70497617  0.16605170     0.70700
O329        O  0.33925945  0.74299217  0.16659431    -0.46100
C330        C  0.25170989  0.70858125  0.24944734     0.75400
O331        O  0.28527869  0.79695741  0.16739520    -0.58000
O332        O  0.23240077  0.68934432  0.21474738    -0.48100
O333        O  0.22533631  0.74576555  0.16738620    -0.54400
C334        C  0.25075777  0.70939485  0.08427745     0.85600
O335        O  0.28812334  0.68299752  0.16576695    -0.56300
O336        O  0.28438018  0.74156334  0.24221094    -0.59600
C337        C  0.04270537  0.96478815  0.99977978     0.80700
N338        N  0.07707169  0.50115690  0.99961679    -0.77600
C339        C  0.07502550  0.53525420  0.99956043     0.83200
N340        N  0.03883878  0.53310511  0.99952458    -0.77500
C341        C  0.00453946  0.49654441  0.99954141     0.83200
N342        N  0.00632223  0.96226494  0.99972833    -0.79700
C343        C  0.14206371  0.60504012  0.99974987    -0.12800
C344        C  0.11104636  0.57340945  0.99962168    -0.14300
C345        C  0.04474553  0.92904822  0.99977879    -0.12800
C346        C  0.04586939  0.89857156  0.99975511    -0.14300
C347        C  0.43553977  0.49416404  0.99973308    -0.12800
C348        C  0.46668716  0.49438981  0.99958696    -0.14300
C349        C  0.40234438  0.50051119  0.33390760     0.80700
N350        N  0.38512607  0.50157779  0.62752570    -0.77600
C351        C  0.34955064  0.00093605  0.62705101     0.83200
N352        N  0.33156697  0.00115933  0.66671599    -0.77500
C353        C  0.35046200  0.00193436  0.37331105     0.83200
N354        N  0.38489321  0.50067252  0.37294294    -0.79300
In355      In  0.30959276  0.00097107  0.50008378     1.36900
C356        C  0.25941997  0.92138757  0.50002377     0.78100
O357        O  0.30072161  0.50073229  0.42473953    -0.60400
O358        O  0.35296390  0.00195559  0.45248294    -0.51300
C359        C  0.33768113  0.58008247  0.50003567     0.70700
O360        O  0.29963636  0.55477133  0.49993566    -0.46100
C361        C  0.33330004  0.00116167  0.58262534     0.75400
O362        O  0.24600169  0.94581139  0.50004546    -0.58000
O363        O  0.35257572  0.00157027  0.54791468    -0.48100
O364        O  0.29744168  0.93827299  0.49992982    -0.54400
C365        C  0.33384175  0.00163649  0.41767377     0.85600
O366        O  0.35948458  0.56422137  0.50016717    -0.56300
O367        O  0.30067328  0.50094570  0.57551431    -0.59600
C368        C  0.03974160  0.85809892  0.33375442     0.80700
N369        N  0.04061201  0.84099714  0.37276848    -0.77600
C370        C  0.04195098  0.80647506  0.37315109     0.83200
N371        N  0.04246079  0.78869097  0.33342922    -0.77500
C372        C  0.04239336  0.80689809  0.62715611     0.83200
N373        N  0.04139946  0.84160576  0.62759987    -0.79300
In374      In  0.04308940  0.76718583  0.50020293     1.36900
C375        C  0.12213616  0.79534442  0.50032274     0.78100
O376        O  0.04238682  0.75775367  0.42481512    -0.60400
O377        O  0.04381357  0.81016439  0.45225521    -0.51300
C378        C  0.46363370  0.71733789  0.50021127     0.70700
O379        O  0.48791354  0.70375166  0.50021939    -0.46100
C380        C  0.04297245  0.79079726  0.58274026     0.75400
O381        O  0.09685823  0.75726747  0.50050253    -0.58000
O382        O  0.04384753  0.81030854  0.54802127    -0.48100
O383        O  0.10628489  0.81716376  0.50003156    -0.54400
C384        C  0.04285048  0.79055741  0.41758290     0.85600
O385        O  0.48061031  0.75540488  0.50026322    -0.56300
O386        O  0.04239882  0.75793074  0.57559102    -0.59600
C387        C  0.35223649  0.68659195  0.50007830     0.03600
C388        C  0.33362162  0.64391520  0.50001757    -0.12500
C389        C  0.35678784  0.62502727  0.50002186     0.01100
C390        C  0.39936365  0.64939723  0.50006965    -0.11100
C391        C  0.41864791  0.69175780  0.50013189     0.03600
C392        C  0.39470099  0.71010998  0.50012171    -0.10500
H393        H  0.30098004  0.62524324  0.49999323     0.09200
H394        H  0.41771714  0.63538440  0.50007553     0.06700
H395        H  0.40907632  0.74276363  0.50017416     0.06600
C396        C  0.22850504  0.80983580  0.50036361     0.03600
C397        C  0.18587377  0.79123435  0.50049140    -0.12500
C398        C  0.16703777  0.81445788  0.50040506     0.01100
C399        C  0.19141563  0.85707885  0.50028994    -0.11100
C400        C  0.23374672  0.87635108  0.50016044     0.03600
C401        C  0.25202605  0.85233284  0.50019268    -0.10500
H402        H  0.16720633  0.75856780  0.50059243     0.09200
H403        H  0.17743852  0.87546891  0.50025818     0.06700
H404        H  0.28465128  0.86668804  0.50007561     0.06600
C405        C  0.18271572  0.63881093  0.33387065     0.80700
N406        N  0.20001926  0.65681491  0.62764815    -0.77600
C407        C  0.23536717  0.69250682  0.62718925     0.83200
N408        N  0.25364699  0.71067983  0.33355341    -0.77500
C409        C  0.23544607  0.69249308  0.37328300     0.83200
N410        N  0.20014790  0.65676254  0.37289987    -0.79300
In411      In  0.27569146  0.73349222  0.50023515     1.36900
C412        C  0.24744072  0.78411141  0.50031966     0.78100
O413        O  0.28451255  0.74227608  0.42479043    -0.60400
O414        O  0.23258895  0.69013676  0.45248044    -0.51300
C415        C  0.32650672  0.70551293  0.50015008     0.70700
O416        O  0.33970372  0.74355445  0.50011486    -0.46100
C417        C  0.25175706  0.70923820  0.58275884     0.75400
O418        O  0.28546403  0.79740736  0.50028890    -0.58000
O419        O  0.23258184  0.69006705  0.54797569    -0.48100
O420        O  0.22560582  0.74604810  0.50029413    -0.54400
C421        C  0.25179077  0.70929235  0.41770023     0.85600
O422        O  0.28848827  0.68358725  0.50025897    -0.56300
O423        O  0.28448804  0.74221952  0.57567217    -0.59600
C424        C  0.03987642  0.96284865  0.33442027     0.80700
N425        N  0.07611088  0.49823802  0.33443322    -0.77600
C426        C  0.07673493  0.53372304  0.33439425     0.83200
N427        N  0.04186427  0.53426174  0.33437084    -0.77500
C428        C  0.00619178  0.49898541  0.33443210     0.83200
N429        N  0.00506845  0.96354156  0.33441912    -0.79700
C430        C  0.14561210  0.60169380  0.33406030    -0.12800
C431        C  0.11413357  0.57054412  0.33424188    -0.14300
C432        C  0.03868581  0.92543474  0.33423164    -0.12800
C433        C  0.03871794  0.89438632  0.33397075    -0.14300
C434        C  0.43871335  0.49970292  0.33409280    -0.12800
C435        C  0.46941909  0.49905903  0.33428384    -0.14300
C436        C  0.40253456  0.50144649  0.66660863     0.80700
N437        N  0.38264158  0.49682066  0.96087698    -0.77600
C438        C  0.34865966  0.99900644  0.96048390     0.83200
N439        N  0.33109272  0.99993014  0.00019319    -0.77500
C440        C  0.34957859  0.00084762  0.70632370     0.83200
N441        N  0.38512587  0.50144420  0.70574282    -0.79300
In442      In  0.30969511  0.00074781  0.83344025     1.36900
C443        C  0.25960122  0.92122102  0.83325552     0.78100
O444        O  0.30069849  0.50066694  0.75802753    -0.60400
O445        O  0.35284051  0.00170769  0.78548272    -0.51300
C446        C  0.33778015  0.57985866  0.83387304     0.70700
O447        O  0.29974072  0.55453895  0.83354797    -0.46100
C448        C  0.33293795  0.00020825  0.91604303     0.75400
O449        O  0.24616572  0.94563206  0.83333643    -0.58000
O450        O  0.35251053  0.00112033  0.88136949    -0.48100
O451        O  0.29762934  0.93809763  0.83322650    -0.54400
C452        C  0.33341489  0.00108963  0.75081088     0.85600
O453        O  0.35961210  0.56402623  0.83407678    -0.56300
O454        O  0.30022778  0.49995881  0.90877582    -0.59600
C455        C  0.04090787  0.85886506  0.66666014     0.80700
N456        N  0.04155185  0.84180915  0.70582388    -0.77600
C457        C  0.04251368  0.80707732  0.70642935     0.83200
N458        N  0.04288356  0.78906655  0.66683396    -0.77500
C459        C  0.04489112  0.80853699  0.96029561     0.83200
N460        N  0.04562047  0.84413065  0.96073914    -0.79300
In461      In  0.04319293  0.76739826  0.83343101     1.36900
C462        C  0.12225488  0.79528700  0.83309203     0.78100
O463        O  0.04276270  0.75831220  0.75806938    -0.60400
O464        O  0.04360768  0.81039706  0.78560079    -0.51300
C465        C  0.46365254  0.71725064  0.83366878     0.70700
O466        O  0.48803390  0.70379551  0.83349723    -0.46100
C467        C  0.04424278  0.79177677  0.91589640     0.75400
O468        O  0.09687283  0.75723227  0.83327233    -0.58000
O469        O  0.04456823  0.81095156  0.88111509    -0.48100
O470        O  0.10649240  0.81718412  0.83299608    -0.54400
C471        C  0.04305043  0.79102801  0.75089261     0.85600
O472        O  0.48055243  0.75530541  0.83380273    -0.56300
O473        O  0.04330581  0.75872100  0.90883978    -0.59600
C474        C  0.35217255  0.68627335  0.83373033     0.03600
C475        C  0.33361088  0.64361000  0.83387381    -0.12500
C476        C  0.35683878  0.62478729  0.83390455     0.01100
C477        C  0.39941776  0.64920566  0.83384877    -0.11100
C478        C  0.41865239  0.69156596  0.83370088     0.03600
C479        C  0.39463585  0.70984144  0.83359751    -0.10500
H480        H  0.30097149  0.62490490  0.83393861     0.09200
H481        H  0.41780954  0.63523469  0.83389077     0.06700
H482        H  0.40896349  0.74248990  0.83345146     0.06600
C483        C  0.22865527  0.80969550  0.83302822     0.03600
C484        C  0.18600743  0.79109746  0.83297376    -0.12500
C485        C  0.16717435  0.81433209  0.83305372     0.01100
C486        C  0.19158898  0.85695090  0.83315940    -0.11100
C487        C  0.23391961  0.87620024  0.83318640     0.03600
C488        C  0.25218804  0.85218151  0.83313980    -0.10500
H489        H  0.16732893  0.75843244  0.83290369     0.09200
H490        H  0.17763856  0.87536578  0.83322815     0.06700
H491        H  0.28481228  0.86652614  0.83319162     0.06600
C492        C  0.18255705  0.63897160  0.66672225     0.80700
N493        N  0.19781982  0.65886649  0.96086523    -0.77600
C494        C  0.23416761  0.69349733  0.96046142     0.83200
N495        N  0.25359908  0.71075639  0.66687369    -0.77500
C496        C  0.23543061  0.69224764  0.70648920     0.83200
N497        N  0.20008568  0.65653563  0.70589039    -0.79300
In498      In  0.27569938  0.73323635  0.83348357     1.36900
C499        C  0.24759467  0.78397626  0.83306729     0.78100
O500        O  0.28458038  0.74181320  0.75806562    -0.60400
O501        O  0.23258633  0.68973607  0.78573822    -0.51300
C502        C  0.32642478  0.70516958  0.83371813     0.70700
O503        O  0.33964669  0.74321137  0.83348859    -0.46100
C504        C  0.25125990  0.70954784  0.91604298     0.75400
O505        O  0.28561662  0.79723897  0.83331691    -0.58000
O506        O  0.23219556  0.69027471  0.88125945    -0.48100
O507        O  0.22573544  0.74592501  0.83291820    -0.54400
C508        C  0.25181335  0.70887581  0.75096055     0.85600
O509        O  0.28839956  0.68325644  0.83393049    -0.56300
O510        O  0.28434849  0.74216509  0.90895342    -0.59600
C511        C  0.04019749  0.96322061  0.66621752     0.80700
N512        N  0.07580501  0.49818307  0.66621922    -0.77600
C513        C  0.07656639  0.53374301  0.66630163     0.83200
N514        N  0.04175257  0.53439862  0.66646616    -0.77500
C515        C  0.00600846  0.49918930  0.66652966     0.83200
N516        N  0.00503795  0.96323854  0.66638844    -0.79700
C517        C  0.14548522  0.60176226  0.66659195    -0.12800
C518        C  0.11404105  0.57054200  0.66640402    -0.14300
C519        C  0.03968009  0.92612777  0.66632279    -0.12800
C520        C  0.03996995  0.89520611  0.66651922    -0.14300
C521        C  0.43897012  0.50073532  0.66656932    -0.12800
C522        C  0.46959964  0.49992660  0.66659400    -0.14300
C523        C  0.89953650  0.99551823  0.99991823     0.80700
N524        N  0.88590306  0.00203421  0.29470808    -0.77600
C525        C  0.85031649  0.50145523  0.29404620     0.83200
N526        N  0.83207100  0.50141928  0.33361182    -0.77500
C527        C  0.84873514  0.49885103  0.03976213     0.83200
N528        N  0.88284802  0.99674128  0.03909639    -0.79300
In529      In  0.81008169  0.50081535  0.16693831     1.36900
C530        C  0.75979620  0.42129168  0.16747055     0.78100
O531        O  0.80063155  0.99996888  0.09162482    -0.60400
O532        O  0.85274061  0.50086050  0.11891420    -0.51300
C533        C  0.83797275  0.07992341  0.16597340     0.70700
O534        O  0.79996042  0.05450627  0.16642490    -0.46100
C535        C  0.83409252  0.50154736  0.24954277     0.75400
O536        O  0.74647721  0.44579475  0.16716641    -0.58000
O537        O  0.85351111  0.50219134  0.21484810    -0.48100
O538        O  0.79781607  0.43807218  0.16761931    -0.54400
C539        C  0.83315070  0.50003703  0.08429333     0.85600
O540        O  0.85990020  0.06419758  0.16595614    -0.56300
O541        O  0.80133517  0.00094247  0.24232973    -0.59600
C542        C  0.54582768  0.36175367  0.99973101     0.80700
N543        N  0.54547414  0.34420354  0.03890321    -0.77600
C544        C  0.54481527  0.30864975  0.03954368     0.83200
N545        N  0.54440528  0.29022519  0.99995997    -0.77500
C546        C  0.54232477  0.30693753  0.29387225     0.83200
N547        N  0.54148966  0.34173194  0.29457844    -0.79300
In548      In  0.54314716  0.26778638  0.16659396     1.36900
C549        C  0.62220988  0.29565141  0.16722765     0.78100
O550        O  0.54336210  0.25906111  0.09122025    -0.60400
O551        O  0.54458300  0.31133090  0.11875107    -0.51300
C552        C  0.96360876  0.21750681  0.16594805     0.70700
O553        O  0.98805653  0.20413028  0.16595966    -0.46100
C554        C  0.54280547  0.29099120  0.24930934     0.75400
O555        O  0.59678280  0.25761392  0.16682615    -0.58000
O556        O  0.54333997  0.31047821  0.21470831    -0.48100
O557        O  0.60650310  0.31760727  0.16737310    -0.54400
C558        C  0.54425495  0.29207291  0.08403445     0.85600
O559        O  0.98043788  0.25555970  0.16619892    -0.56300
O560        O  0.54257881  0.25833139  0.24192712    -0.59600
C561        C  0.85201704  0.18621909  0.16579413     0.03600
C562        C  0.83357220  0.14356244  0.16568902    -0.12500
C563        C  0.85690471  0.12484591  0.16565100     0.01100
C564        C  0.89947577  0.14936897  0.16558294    -0.11100
C565        C  0.91860732  0.19172465  0.16573445     0.03600
C566        C  0.89448382  0.20988908  0.16585676    -0.10500
H567        H  0.80094063  0.12477965  0.16574811     0.09200
H568        H  0.91794403  0.13548176  0.16555609     0.06700
H569        H  0.90873100  0.24253043  0.16602281     0.06600
C570        C  0.72843544  0.30963211  0.16765995     0.03600
C571        C  0.68580505  0.29119186  0.16757788    -0.12500
C572        C  0.66711635  0.31456794  0.16745237     0.01100
C573        C  0.69166029  0.35717102  0.16745163    -0.11100
C574        C  0.73398325  0.37627640  0.16757486     0.03600
C575        C  0.75210313  0.35211746  0.16767689    -0.10500
H576        H  0.66702748  0.25853597  0.16754846     0.09200
H577        H  0.67781513  0.37568197  0.16731820     0.06700
H578        H  0.78471759  0.36635436  0.16770828     0.06600
C579        C  0.67972638  0.14166632  0.99992961     0.80700
N580        N  0.70073568  0.15575100  0.29466497    -0.77600
C581        C  0.73576400  0.19173939  0.29398184     0.83200
N582        N  0.75277421  0.21131570  0.00018654    -0.77500
C583        C  0.73393803  0.19342330  0.03977468     0.83200
N584        N  0.69762529  0.15875132  0.03911679    -0.79300
In585      In  0.77523723  0.23290387  0.16685253     1.36900
C586        C  0.74723297  0.28377079  0.16753270     0.78100
O587        O  0.78391121  0.24195780  0.09148034    -0.60400
O588        O  0.73157033  0.19011297  0.11900945    -0.51300
C589        C  0.82614509  0.20499806  0.16600336     0.70700
O590        O  0.83925369  0.24301358  0.16660501    -0.46100
C591        C  0.75182571  0.20844948  0.24945318     0.75400
O592        O  0.78523050  0.29692929  0.16739232    -0.58000
O593        O  0.73247312  0.18925757  0.21475319    -0.48100
O594        O  0.72529790  0.24571999  0.16745116    -0.54400
C595        C  0.75079041  0.20940307  0.08428678     0.85600
O596        O  0.78812387  0.18300944  0.16567190    -0.56300
O597        O  0.78442956  0.24149764  0.24222173    -0.59600
C598        C  0.54256295  0.46473665  0.99959536     0.80700
N599        N  0.57706499  0.00105997  0.99979499    -0.77600
C600        C  0.57511402  0.03520930  0.99969807     0.83200
N601        N  0.53897325  0.03315740  0.99963745    -0.77500
C602        C  0.50462217  0.99664192  0.99967492     0.83200
N603        N  0.50621630  0.46229090  0.99957236    -0.79700
C604        C  0.64220122  0.10494621  0.99978394    -0.12800
C605        C  0.61118200  0.07332018  0.99970368    -0.14300
C606        C  0.54452030  0.42895241  0.99960294    -0.12800
C607        C  0.54560275  0.39845424  0.99962259    -0.14300
C608        C  0.93552742  0.99401307  0.99975481    -0.12800
C609        C  0.96668139  0.99425020  0.99964811    -0.14300
C610        C  0.90321072  0.00198579  0.33390757     0.80700
N611        N  0.88476399  0.00092435  0.62751635    -0.77600
C612        C  0.84992129  0.50161593  0.62705276     0.83200
N613        N  0.83180638  0.50157769  0.66671782    -0.77500
C614        C  0.85001461  0.50125694  0.37332379     0.83200
N615        N  0.88561795  0.00188381  0.37294150    -0.79300
In616      In  0.80955201  0.50094692  0.50012342     1.36900
C617        C  0.75937463  0.42136875  0.50026851     0.78100
O618        O  0.80092698  0.00097497  0.42468213    -0.60400
O619        O  0.85274053  0.50164854  0.45248253    -0.51300
C620        C  0.83766255  0.08011308  0.50016601     0.70700
O621        O  0.79962214  0.05478519  0.49994355    -0.46100
C622        C  0.83348001  0.50149074  0.58263670     0.75400
O623        O  0.74596047  0.44579594  0.50021937    -0.58000
O624        O  0.85269211  0.50180318  0.54791146    -0.48100
O625        O  0.79739619  0.43824830  0.50022101    -0.54400
C626        C  0.83356048  0.50125696  0.41769332     0.85600
O627        O  0.85948552  0.06427461  0.50038174    -0.56300
O628        O  0.80061717  0.00087161  0.57547517    -0.59600
C629        C  0.54108654  0.35885491  0.33377548     0.80700
N630        N  0.54166293  0.34159051  0.37278373    -0.77600
C631        C  0.54250649  0.30680619  0.37316030     0.83200
N632        N  0.54278162  0.28890327  0.33343332    -0.77500
C633        C  0.54200548  0.30674296  0.62717139     0.83200
N634        N  0.54078087  0.34132840  0.62763315    -0.79300
In635      In  0.54304020  0.26721046  0.50022348     1.36900
C636        C  0.62208138  0.29534668  0.50048366     0.78100
O637        O  0.54246959  0.25784099  0.42482863    -0.60400
O638        O  0.54395869  0.31027951  0.45227274    -0.51300
C639        C  0.96358111  0.21736753  0.50014879     0.70700
O640        O  0.98785668  0.20377629  0.50023540    -0.46100
C641        C  0.54273630  0.29072928  0.58275418     0.75400
O642        O  0.59679561  0.25727133  0.50054917    -0.58000
O643        O  0.54365298  0.31026600  0.54803983    -0.48100
O644        O  0.60624017  0.31717531  0.50028809    -0.54400
C645        C  0.54308046  0.29071745  0.41759633     0.85600
O646        O  0.98055965  0.25543466  0.50008136    -0.56300
O647        O  0.54224885  0.25790589  0.57560217    -0.59600
C648        C  0.85218046  0.18660547  0.50023721     0.03600
C649        C  0.83357359  0.14392962  0.50020470    -0.12500
C650        C  0.85674951  0.12505322  0.50016078     0.01100
C651        C  0.89932295  0.14943092  0.50013242    -0.11100
C652        C  0.91859784  0.19178863  0.50014788     0.03600
C653        C  0.89464462  0.21013298  0.50019224    -0.10500
H654        H  0.80093279  0.12525041  0.50022982     0.09200
H655        H  0.91768363  0.13542596  0.50009610     0.06700
H656        H  0.90901450  0.24278643  0.50021678     0.06600
C657        C  0.72843937  0.30981498  0.50035821     0.03600
C658        C  0.68580910  0.29121912  0.50050934    -0.12500
C659        C  0.66698100  0.31444977  0.50056109     0.01100
C660        C  0.69136559  0.35706992  0.50053999    -0.11100
C661        C  0.73369543  0.37633451  0.50037978     0.03600
C662        C  0.75196726  0.35231072  0.50029538    -0.10500
H663        H  0.66713697  0.25855277  0.50053173     0.09200
H664        H  0.67739442  0.37546572  0.50059328     0.06700
H665        H  0.78459179  0.36666056  0.50015523     0.06600
C666        C  0.68338266  0.13813437  0.33386026     0.80700
N667        N  0.69940057  0.15739099  0.62766816    -0.77600
C668        C  0.73499885  0.19283309  0.62719772     0.83200
N669        N  0.75378761  0.21050056  0.33355682    -0.77500
C670        C  0.73570620  0.19218734  0.37328237     0.83200
N671        N  0.70066238  0.15621551  0.37289299    -0.79300
In672      In  0.77562037  0.23347743  0.50023662     1.36900
C673        C  0.74737050  0.28408939  0.50022723     0.78100
O674        O  0.78450980  0.24220928  0.42479494    -0.60400
O675        O  0.73265198  0.18999788  0.45247506    -0.51300
C676        C  0.82644314  0.20551532  0.50031981     0.70700
O677        O  0.83963353  0.24355486  0.50014036    -0.46100
C678        C  0.75154188  0.20939448  0.58276215     0.75400
O679        O  0.78539364  0.29738602  0.50030812    -0.58000
O680        O  0.73238844  0.19018759  0.54798453    -0.48100
O681        O  0.72553347  0.24602663  0.50005118    -0.54400
C682        C  0.75188290  0.20913463  0.41769976     0.85600
O683        O  0.78842568  0.18358197  0.50055137    -0.56300
O684        O  0.78436518  0.24228198  0.57566689    -0.59600
C685        C  0.54050127  0.46324386  0.33448812     0.80700
N686        N  0.57585075  0.99755445  0.33433746    -0.77600
C687        C  0.57711854  0.03335346  0.33431222     0.83200
N688        N  0.54258504  0.03453616  0.33429603    -0.77500
C689        C  0.50660360  0.99959165  0.33434595     0.83200
N690        N  0.50532473  0.46322127  0.33447396    -0.79700
C691        C  0.64639922  0.10089615  0.33403710    -0.12800
C692        C  0.61482816  0.06984166  0.33419197    -0.14300
C693        C  0.54002892  0.42618718  0.33428988    -0.12800
C694        C  0.54028546  0.39525601  0.33400729    -0.14300
C695        C  0.93968062  0.00136255  0.33409684    -0.12800
C696        C  0.97025206  0.00045872  0.33427229    -0.14300
C697        C  0.90209484  0.00063562  0.66659470     0.80700
N698        N  0.88267270  0.99674986  0.96088465    -0.77600
C699        C  0.84856013  0.49886226  0.96047360     0.83200
N700        N  0.83102577  0.49983996  0.00018489    -0.77500
C701        C  0.84995181  0.50152654  0.70632359     0.83200
N702        N  0.88477509  0.00079754  0.70573149    -0.79300
In703      In  0.80970583  0.50077394  0.83342325     1.36900
C704        C  0.75961763  0.42124380  0.83313303     0.78100
O705        O  0.80064435  0.00057299  0.75805617    -0.60400
O706        O  0.85297662  0.50195368  0.78548826    -0.51300
C707        C  0.83778528  0.07984550  0.83383179     0.70700
O708        O  0.79974787  0.05452053  0.83355358    -0.46100
C709        C  0.83286995  0.50011686  0.91603193     0.75400
O710        O  0.74618014  0.44565234  0.83326732    -0.58000
O711        O  0.85245487  0.50104069  0.88136471    -0.48100
O712        O  0.79764669  0.43812435  0.83305131    -0.54400
C713        C  0.83360701  0.50142638  0.75080622     0.85600
O714        O  0.85962244  0.06401802  0.83401124    -0.56300
O715        O  0.80029663  0.99997955  0.90880598    -0.59600
C716        C  0.54019073  0.35852214  0.66670520     0.80700
N717        N  0.54100364  0.34154232  0.70585821    -0.77600
C718        C  0.54219372  0.30693168  0.70644215     0.83200
N719        N  0.54264196  0.28897671  0.66683798    -0.77500
C720        C  0.54476245  0.30846743  0.96026110     0.83200
N721        N  0.54542446  0.34402683  0.96067230    -0.79300
In722      In  0.54319299  0.26737428  0.83340957     1.36900
C723        C  0.62226768  0.29529180  0.83303872     0.78100
O724        O  0.54267089  0.25826477  0.75804792    -0.60400
O725        O  0.54354601  0.31035708  0.78560729    -0.51300
C726        C  0.96364761  0.21723375  0.83370662     0.70700
O727        O  0.98802751  0.20377567  0.83349383    -0.46100
C728        C  0.54418571  0.29172634  0.91587237     0.75400
O729        O  0.59689355  0.25723559  0.83325520    -0.58000
O730        O  0.54455856  0.31091780  0.88108610    -0.48100
O731        O  0.60649289  0.31717741  0.83290969    -0.54400
C732        C  0.54291032  0.29095931  0.75089097     0.85600
O733        O  0.98054882  0.25528810  0.83389771    -0.56300
O734        O  0.54325323  0.25867138  0.90882542    -0.59600
C735        C  0.85216492  0.18626042  0.83364771     0.03600
C736        C  0.83360497  0.14359599  0.83378274    -0.12500
C737        C  0.85683579  0.12477431  0.83385065     0.01100
C738        C  0.89941360  0.14919405  0.83383385    -0.11100
C739        C  0.91864708  0.19155303  0.83370260     0.03600
C740        C  0.89462975  0.20982865  0.83356487    -0.10500
H741        H  0.80096573  0.12489012  0.83381959     0.09200
H742        H  0.91780664  0.13522448  0.83390284     0.06700
H743        H  0.90895825  0.24247750  0.83343048     0.06600
C744        C  0.72867641  0.30971996  0.83305462     0.03600
C745        C  0.68602835  0.29111867  0.83299066    -0.12500
C746        C  0.66719038  0.31434815  0.83300399     0.01100
C747        C  0.69160287  0.35696819  0.83305796    -0.11100
C748        C  0.73393591  0.37622178  0.83309102     0.03600
C749        C  0.75220706  0.35220564  0.83310628    -0.10500
H750        H  0.66735234  0.25845343  0.83296041     0.09200
H751        H  0.67764890  0.37537986  0.83308261     0.06700
H752        H  0.78483167  0.36655195  0.83316666     0.06600
C753        C  0.68180782  0.13968789  0.66674746     0.80700
N754        N  0.69791206  0.15880632  0.96087918    -0.77600
C755        C  0.73423054  0.19347173  0.96046988     0.83200
N756        N  0.75336915  0.21095829  0.66687576    -0.77500
C757        C  0.73508982  0.19257082  0.70649679     0.83200
N758        N  0.69949397  0.15710727  0.70590942    -0.79300
In759      In  0.77570111  0.23324858  0.83348330     1.36900
C760        C  0.74761413  0.28400010  0.83313700     0.78100
O761        O  0.78449419  0.24189894  0.75806209    -0.60400
O762        O  0.73248223  0.18984676  0.78574542    -0.51300
C763        C  0.82641695  0.20515994  0.83362382     0.70700
O764        O  0.83964229  0.24320206  0.83345782    -0.46100
C765        C  0.75130280  0.20953464  0.91604793     0.75400
O766        O  0.78563637  0.29725856  0.83330555    -0.58000
O767        O  0.73224747  0.19024459  0.88126798    -0.48100
O768        O  0.72574924  0.24594953  0.83308469    -0.54400
C769        C  0.75165237  0.20903425  0.75096364     0.85600
O770        O  0.78839050  0.18325295  0.83378046    -0.56300
O771        O  0.78436195  0.24218105  0.90895163    -0.59600
C772        C  0.53986619  0.46307138  0.66632155     0.80700
N773        N  0.57612865  0.99887624  0.66616701    -0.77600
C774        C  0.57617811  0.03408163  0.66628287     0.83200
N775        N  0.54099818  0.03402369  0.66645637    -0.77500
C776        C  0.50560263  0.99845532  0.66649334     0.83200
N777        N  0.50489762  0.46346213  0.66648818    -0.79700
C778        C  0.64462921  0.10258377  0.66662439    -0.12800
C779        C  0.61330150  0.07124443  0.66641991    -0.14300
C780        C  0.53897647  0.42579277  0.66642015    -0.12800
C781        C  0.53915092  0.39481076  0.66659038    -0.14300
C782        C  0.93847035  0.99981143  0.66654508    -0.12800
C783        C  0.96916996  0.99913688  0.66654723    -0.14300
C784        C  0.89951057  0.49554360  0.99991294     0.80700
N785        N  0.88537397  0.50117672  0.29471994    -0.77600
C786        C  0.85067463  0.00197931  0.29403198     0.83200
N787        N  0.83235346  0.00179321  0.33359681    -0.77500
C788        C  0.84877156  0.99884881  0.03976351     0.83200
N789        N  0.88282456  0.49676662  0.03909285    -0.79300
In790      In  0.81014520  0.00086390  0.16694358     1.36900
C791        C  0.75984377  0.92133524  0.16757167     0.78100
O792        O  0.80057695  0.49993291  0.09162387    -0.60400
O793        O  0.85276825  0.00084419  0.11891477    -0.51300
C794        C  0.83795037  0.57988496  0.16603861     0.70700
O795        O  0.79993474  0.55448001  0.16643879    -0.46100
C796        C  0.83431658  0.00182539  0.24953173     0.75400
O797        O  0.74653203  0.94584316  0.16724832    -0.58000
O798        O  0.85367712  0.00238435  0.21482180    -0.48100
O799        O  0.79786351  0.93811339  0.16771500    -0.54400
C800        C  0.83318877  0.00004065  0.08429387     0.85600
O801        O  0.85986453  0.56414347  0.16606359    -0.56300
O802        O  0.80116085  0.50076099  0.24231875    -0.59600
C803        C  0.54578284  0.86168412  0.99983318     0.80700
N804        N  0.54547747  0.84413009  0.03898234    -0.77600
C805        C  0.54485041  0.80859285  0.03958389     0.83200
N806        N  0.54442570  0.79018733  0.99998073    -0.77500
C807        C  0.54161192  0.80650178  0.29386446     0.83200
N808        N  0.54017280  0.84097501  0.29455189    -0.79300
In809      In  0.54315068  0.76769725  0.16661475     1.36900
C810        C  0.62224347  0.79565459  0.16735430     0.78100
O811        O  0.54339950  0.75898413  0.09123561    -0.60400
O812        O  0.54464498  0.81126151  0.11878301    -0.51300
C813        C  0.96361923  0.71746032  0.16592038     0.70700
O814        O  0.98806788  0.70408325  0.16595171    -0.46100
C815        C  0.54247798  0.79074371  0.24931516     0.75400
O816        O  0.59684199  0.75761161  0.16687266    -0.58000
O817        O  0.54310234  0.81027201  0.21471246    -0.48100
O818        O  0.60650087  0.81757885  0.16756980    -0.54400
C819        C  0.54430737  0.79200541  0.08406142     0.85600
O820        O  0.98045420  0.75551346  0.16613610    -0.56300
O821        O  0.54243656  0.75817485  0.24194497    -0.59600
C822        C  0.85202057  0.68619268  0.16586536     0.03600
C823        C  0.83357034  0.64353561  0.16577358    -0.12500
C824        C  0.85689601  0.62481038  0.16571329     0.01100
C825        C  0.89946903  0.64932550  0.16560718    -0.11100
C826        C  0.91861118  0.69168290  0.16573996     0.03600
C827        C  0.89449132  0.70985477  0.16588859    -0.10500
H828        H  0.80093813  0.62475827  0.16585654     0.09200
H829        H  0.91793001  0.63543060  0.16555923     0.06700
H830        H  0.90874487  0.74249655  0.16604315     0.06600
C831        C  0.72848738  0.80967747  0.16766684     0.03600
C832        C  0.68585678  0.79123347  0.16761686    -0.12500
C833        C  0.66715778  0.81459982  0.16756688     0.01100
C834        C  0.69169724  0.85720554  0.16759737    -0.11100
C835        C  0.73402552  0.87631767  0.16768234     0.03600
C836        C  0.75215044  0.85216211  0.16772407    -0.10500
H837        H  0.66708394  0.75857727  0.16755691     0.09200
H838        H  0.67784501  0.87570995  0.16750771     0.06700
H839        H  0.78476542  0.86640095  0.16772968     0.06600
C840        C  0.67963920  0.64171896  0.99991175     0.80700
N841        N  0.70002983  0.65647480  0.29467352    -0.77600
C842        C  0.73539442  0.69214306  0.29398432     0.83200
N843        N  0.75273255  0.71131711  0.00018027    -0.77500
C844        C  0.73389353  0.69342355  0.03976648     0.83200
N845        N  0.69755755  0.65877476  0.03910430    -0.79300
In846      In  0.77524805  0.73291323  0.16683872     1.36900
C847        C  0.74728120  0.78381206  0.16748361     0.78100
O848        O  0.78387443  0.74196436  0.09146116    -0.60400
O849        O  0.73158866  0.69007707  0.11900628    -0.51300
C850        C  0.82614965  0.70497913  0.16607771     0.70700
O851        O  0.83926187  0.74299501  0.16660092    -0.46100
C852        C  0.75166906  0.70863971  0.24944936     0.75400
O853        O  0.78527769  0.79695846  0.16738020    -0.58000
O854        O  0.73237981  0.68938036  0.21475035    -0.48100
O855        O  0.72533605  0.74576307  0.16733436    -0.54400
C856        C  0.75077113  0.70938854  0.08427697     0.85600
O857        O  0.78812645  0.68299986  0.16581227    -0.56300
O858        O  0.78435797  0.74160298  0.24221049    -0.59600
C859        C  0.54255459  0.96468865  0.99982422     0.80700
N860        N  0.57704038  0.50113621  0.99959321    -0.77600
C861        C  0.57502902  0.53525286  0.99954465     0.83200
N862        N  0.53885854  0.53313861  0.99951183    -0.77500
C863        C  0.50454054  0.49659373  0.99952293     0.83200
N864        N  0.50623563  0.96230461  0.99977207    -0.79700
C865        C  0.64209026  0.60501887  0.99974775    -0.12800
C866        C  0.61106822  0.57339271  0.99961389    -0.14300
C867        C  0.54445287  0.92887179  0.99981642    -0.12800
C868        C  0.54552893  0.89837006  0.99978104    -0.14300
C869        C  0.93551365  0.49406324  0.99973953    -0.12800
C870        C  0.96666898  0.49430439  0.99959868    -0.14300
C871        C  0.90257509  0.50092002  0.33391601     0.80700
N872        N  0.88506112  0.50149362  0.62751790    -0.77600
C873        C  0.84975075  0.00129207  0.62705130     0.83200
N874        N  0.83169838  0.00137551  0.66671832    -0.77500
C875        C  0.85038615  0.00181454  0.37331173     0.83200
N876        N  0.88507553  0.50099387  0.37294934    -0.79300
In877      In  0.80960409  0.00099572  0.50009438     1.36900
C878        C  0.75943487  0.92141245  0.50009248     0.78100
O879        O  0.80074877  0.50076777  0.42472217    -0.60400
O880        O  0.85292902  0.00190720  0.45248176    -0.51300
C881        C  0.83766062  0.58007881  0.50001903     0.70700
O882        O  0.79961626  0.55476564  0.49990190    -0.46100
C883        C  0.83340386  0.00134008  0.58262882     0.75400
O884        O  0.74601556  0.94583516  0.50007968    -0.58000
O885        O  0.85264926  0.00170076  0.54791210    -0.48100
O886        O  0.79745673  0.93829873  0.50003179    -0.54400
C887        C  0.83380044  0.00158290  0.41767620     0.85600
O888        O  0.85946611  0.56422033  0.50018507    -0.56300
O889        O  0.80064830  0.50093663  0.57550077    -0.59600
C890        C  0.53942420  0.85792808  0.33373998     0.80700
N891        N  0.54034787  0.84086110  0.37275912    -0.77600
C892        C  0.54179690  0.80639793  0.37315016     0.83200
N893        N  0.54237064  0.78864215  0.33343282    -0.77500
C894        C  0.54276577  0.80711086  0.62715744     0.83200
N895        N  0.54205332  0.84196670  0.62760452    -0.79300
In896      In  0.54310588  0.76720916  0.50020818     1.36900
C897        C  0.62215130  0.79536972  0.50028256     0.78100
O898        O  0.54236124  0.75774904  0.42482288    -0.60400
O899        O  0.54374095  0.81014001  0.45225208    -0.51300
C900        C  0.96361584  0.71732529  0.50012521     0.70700
O901        O  0.98789114  0.70373320  0.50018085    -0.46100
C902        C  0.54315687  0.79091249  0.58274076     0.75400
O903        O  0.59687440  0.75729252  0.50050324    -0.58000
O904        O  0.54397411  0.81039175  0.54801744    -0.48100
O905        O  0.60629968  0.81718829  0.49993928    -0.54400
C906        C  0.54277052  0.79052479  0.41758437     0.85600
O907        O  0.98059732  0.75539261  0.50014348    -0.56300
O908        O  0.54250487  0.75800649  0.57559675    -0.59600
C909        C  0.85222066  0.68659060  0.50000741     0.03600
C910        C  0.83360270  0.64391342  0.49996600    -0.12500
C911        C  0.85676692  0.62502324  0.49997933     0.01100
C912        C  0.89934270  0.64939060  0.50000977    -0.11100
C913        C  0.91862982  0.69175066  0.50004567     0.03600
C914        C  0.89468573  0.71010609  0.50003141    -0.10500
H915        H  0.80096107  0.62524332  0.49995709     0.09200
H916        H  0.91769456  0.63537574  0.50002351     0.06700
H917        H  0.90906375  0.74275990  0.50007138     0.06600
C918        C  0.72851787  0.80986051  0.50041200     0.03600
C919        C  0.68588713  0.79126033  0.50050379    -0.12500
C920        C  0.66705219  0.81448422  0.50039484     0.01100
C921        C  0.69143030  0.85710497  0.50030221    -0.11100
C922        C  0.73376143  0.87637635  0.50021709     0.03600
C923        C  0.75204017  0.85235737  0.50026321    -0.10500
H924        H  0.66721873  0.75859388  0.50058912     0.09200
H925        H  0.67745312  0.87549562  0.50025641     0.06700
H926        H  0.78466507  0.86671148  0.50017145     0.06600
C927        C  0.68248831  0.63905346  0.33387105     0.80700
N928        N  0.70007488  0.65675012  0.62765117    -0.77600
C929        C  0.73539968  0.69246482  0.62719274     0.83200
N930        N  0.75358673  0.71075921  0.33355720    -0.77500
C931        C  0.73534115  0.69261461  0.37328603     0.83200
N932        N  0.69996221  0.65696313  0.37290102    -0.79300
In933      In  0.77568648  0.73350361  0.50024153     1.36900
C934        C  0.74744961  0.78413301  0.50037130     0.78100
O935        O  0.78448411  0.74231839  0.42479780    -0.60400
O936        O  0.73254668  0.69018978  0.45248387    -0.51300
C937        C  0.82649408  0.70551510  0.50009345     0.70700
O938        O  0.83969480  0.74355716  0.50008613    -0.46100
C939        C  0.75177341  0.70921587  0.58276346     0.75400
O940        O  0.78547205  0.79742415  0.50032380    -0.58000
O941        O  0.73259627  0.69005124  0.54797842    -0.48100
O942        O  0.72561019  0.74607028  0.50035584    -0.54400
C943        C  0.75173666  0.70936059  0.41770497     0.85600
O944        O  0.78847528  0.68359274  0.50019573    -0.56300
O945        O  0.78449317  0.74220899  0.57567989    -0.59600
C946        C  0.53972715  0.96276131  0.33437297     0.80700
N947        N  0.57621287  0.49847802  0.33443927    -0.77600
C948        C  0.57661864  0.53385460  0.33439367     0.83200
N949        N  0.54163621  0.53417571  0.33436513    -0.77500
C950        C  0.50607007  0.49878980  0.33442784     0.83200
N951        N  0.50499737  0.96360272  0.33437119    -0.79700
C952        C  0.64535138  0.60197207  0.33405947    -0.12800
C953        C  0.61390887  0.57078653  0.33424047    -0.14300
C954        C  0.53838465  0.92527290  0.33419326    -0.12800
C955        C  0.53836035  0.89419512  0.33394486    -0.14300
C956        C  0.93898170  0.50018309  0.33410503    -0.12800
C957        C  0.96965323  0.49947351  0.33429378    -0.14300
C958        C  0.90246432  0.50134742  0.66659860     0.80700
N959        N  0.88263145  0.49675036  0.96088194    -0.77600
C960        C  0.84861362  0.99888552  0.96047534     0.83200
N961        N  0.83107743  0.99986163  0.00018558    -0.77500
C962        C  0.84978174  0.00119771  0.70632392     0.83200
N963        N  0.88507167  0.50137222  0.70573414    -0.79300
In964      In  0.80971386  0.00075754  0.83343515     1.36900
C965        C  0.75961468  0.92122898  0.83320029     0.78100
O966        O  0.80068577  0.50066143  0.75804082    -0.60400
O967        O  0.85291943  0.00182243  0.78548724    -0.51300
C968        C  0.83778029  0.57985745  0.83391419     0.70700
O969        O  0.79974161  0.55453594  0.83358550    -0.46100
C970        C  0.83292116  0.00014456  0.91603655     0.75400
O971        O  0.74618181  0.94564179  0.83332008    -0.58000
O972        O  0.85249156  0.00105279  0.88136299    -0.48100
O973        O  0.79764261  0.93810457  0.83312893    -0.54400
C974        C  0.83352446  0.00125768  0.75081111     0.85600
O975        O  0.85961504  0.56402810  0.83410506    -0.56300
O976        O  0.80024247  0.49994343  0.90879107    -0.59600
C977        C  0.54172311  0.85930844  0.66666648     0.80700
N978        N  0.54220519  0.84216410  0.70582853    -0.77600
C979        C  0.54288601  0.80728443  0.70643036     0.83200
N980        N  0.54311679  0.78920367  0.66683330    -0.77500
C981        C  0.54473771  0.80843445  0.96030154     0.83200
N982        N  0.54536788  0.84397897  0.96075214    -0.79300
In983      In  0.54320155  0.76740067  0.83342264     1.36900
C984        C  0.62226440  0.79529241  0.83314071     0.78100
O985        O  0.54286490  0.75837454  0.75805898    -0.60400
O986        O  0.54373587  0.81046761  0.78560588    -0.51300
C987        C  0.96364710  0.71724684  0.83376101     0.70700
O988        O  0.98802875  0.70379192  0.83355202    -0.46100
C989        C  0.54415577  0.79171401  0.91589742     0.75400
O990        O  0.59688294  0.75723689  0.83326952    -0.58000
O991        O  0.54449243  0.81090124  0.88112240    -0.48100
O992        O  0.60650104  0.81718871  0.83310110    -0.54400
C993        C  0.54323480  0.79113276  0.75089143     0.85600
O994        O  0.98054551  0.75530120  0.83391826    -0.56300
O995        O  0.54326509  0.75868222  0.90882960    -0.59600
C996        C  0.85216845  0.68627009  0.83378634     0.03600
C997        C  0.83360687  0.64360665  0.83392334    -0.12500
C998        C  0.85683577  0.62478500  0.83396373     0.01100
C999        C  0.89941420  0.64920354  0.83392815    -0.11100
C1000       C  0.91864789  0.69156300  0.83379193     0.03600
C1001       C  0.89463151  0.70983837  0.83367654    -0.10500
H1002       H  0.80096765  0.62490112  0.83397111     0.09200
H1003       H  0.91780666  0.63523337  0.83397488     0.06700
H1004       H  0.90895912  0.74248692  0.83353313     0.06600
C1005       C  0.72866436  0.80970188  0.83301165     0.03600
C1006       C  0.68601683  0.79110456  0.83298618    -0.12500
C1007       C  0.66718420  0.81433920  0.83307948     0.01100
C1008       C  0.69159950  0.85695840  0.83316071    -0.11100
C1009       C  0.73393074  0.87620764  0.83314864     0.03600
C1010       C  0.75219805  0.85218785  0.83309666    -0.10500
H1011       H  0.66733796  0.75843962  0.83293324     0.09200
H1012       H  0.67764920  0.87537353  0.83323669     0.06700
H1013       H  0.78482257  0.86653187  0.83312597     0.06600
C1014       C  0.68262503  0.63889471  0.66672555     0.80700
N1015       N  0.69783274  0.65886085  0.96086501    -0.77600
C1016       C  0.73417311  0.69350006  0.96046145     0.83200
N1017       N  0.75361830  0.71072635  0.66687737    -0.77500
C1018       C  0.73546077  0.69220752  0.70649271     0.83200
N1019       N  0.70013931  0.65647277  0.70589397    -0.79300
In1020     In  0.77570029  0.73323672  0.83348396     1.36900
C1021       C  0.74760139  0.78398077  0.83305248     0.78100
O1022       O  0.78458941  0.74179636  0.75806599    -0.60400
O1023       O  0.73259375  0.68972331  0.78574192    -0.51300
C1024       C  0.82642184  0.70516705  0.83375298     0.70700
O1025       O  0.83964545  0.74320918  0.83351315    -0.46100
C1026       C  0.75125988  0.70955536  0.91604301     0.75400
O1027       O  0.78562277  0.79724124  0.83329584    -0.58000
O1028       O  0.73219095  0.69028530  0.88126009    -0.48100
O1029       O  0.72574018  0.74592974  0.83291512    -0.54400
C1030       C  0.75182716  0.70885378  0.75096315     0.85600
O1031       O  0.78839655  0.68325474  0.83395495    -0.56300
O1032       O  0.78435069  0.74217007  0.90895282    -0.59600
C1033       C  0.54058710  0.96345044  0.66622937     0.80700
N1034       N  0.57578314  0.49810702  0.66623154    -0.77600
C1035       C  0.57660499  0.53369675  0.66631732     0.83200
N1036       N  0.54182255  0.53441280  0.66648586    -0.77500
C1037       C  0.50604957  0.49923418  0.66655082     0.83200
N1038       N  0.50522421  0.96306713  0.66640096    -0.79700
C1039       C  0.64556284  0.60167543  0.66659617    -0.12800
C1040       C  0.61410919  0.57046465  0.66641346    -0.14300
C1041       C  0.54047630  0.92656201  0.66633424    -0.12800
C1042       C  0.54090270  0.89571106  0.66652941    -0.14300
C1043       C  0.93888935  0.50061567  0.66655529    -0.12800
C1044       C  0.96952702  0.49982204  0.66657504    -0.14300
loop_ 
_geom_bond_atom_site_label_1 
_geom_bond_atom_site_label_2 
_geom_bond_distance 
_geom_bond_site_symmetry_2 
_ccdc_geom_bond_type 
C1            N6   1.342   1_556  A
C1          N176   1.342       .  A
C1           C86   1.414       .  S
N2           C88   1.343       .  A
N2          C264   1.353       .  A
C3            N4   1.369       .  A
C3          N263   1.353       .  A
C3           C13   1.464       .  S
N4           C92   1.369       .  A
C5          N178   1.370       .  A
C5          N267   1.353       .  A
C5           C17   1.463       .  S
N6          C266   1.353       .  A
In7          O10   2.174       .  S
In7          O14   2.277       .  S
In7          O15   2.175       .  S
In7          O16   2.208       .  S
In7         O270   2.266       .  S
In7         O279   2.201       .  S
In7         O273   2.284       .  S
In7         O280   2.267       .  S
C8           C52   1.493       .  S
C8           O14   1.280       .  A
C8           O16   1.262       .  A
O9         In268   2.267       .  S
O9          C278   1.269       .  A
O10          C17   1.266       .  A
C11          C41   1.493       .  S
C11          O18   1.262       .  A
C11          O12   1.279       .  A
O12        In268   2.285       .  S
C13          O15   1.266       .  A
C13         O280   1.269       .  A
C17         O270   1.269       .  A
O18        In268   2.201       .  S
O19        In268   2.267       .  S
O19         C274   1.269       .  A
C20          N21   1.342   1_556  A
C20         N199   1.342       .  A
C20          C85   1.414       .  S
N21          C22   1.353       .  A
C22          N23   1.369   1_554  A
C22          C36   1.463       .  S
N23         C198   1.369       .  A
C24          N25   1.353       .  A
C24         N110   1.370       .  A
C24          C32   1.464       .  S
N25         C107   1.342       .  A
In26         O28   2.267       .  S
In26         O29   2.175       .  S
In26         O33   2.285       .  S
In26         O34   2.173       .  S
In26         O35   2.203       .  S
In26         O38   2.267       .  S
In26        O559   2.209   1_455  S
In26        O553   2.279   1_455  S
C27          C50   1.494       .  S
C27          O33   1.279       .  A
C27          O35   1.262       .  A
O28          C36   1.269       .  A
O29          C36   1.266       .  A
C30          C43   1.493       .  S
C30          O37   1.262       .  A
C30          O31   1.280       .  A
O31        In548   2.279       .  S
C32          O34   1.266       .  A
C32          O38   1.269       .  A
O37        In548   2.209       .  S
C39          C67   1.496       .  S
C39          C40   1.416       .  A
C39          C44   1.408       .  A
C40          C41   1.406       .  A
C40          H45   1.083       .  S
C41          C42   1.413       .  A
C42          C43   1.404       .  A
C42          H46   1.083       .  S
C43          C44   1.416       .  A
C44          H47   1.083       .  S
C48          C64   1.496       .  S
C48          C49   1.416       .  A
C48          C53   1.407       .  A
C49          C50   1.407       .  A
C49          H54   1.083       .  S
C50          C51   1.413       .  A
C51          C52   1.404       .  A
C51          H55   1.083       .  S
C52          C53   1.416       .  A
C53          H56   1.083       .  S
C57          N62   1.343   1_556  A
C57         N232   1.342       .  A
C57          C82   1.414       .  S
N58          C59   1.353       .  A
N58         C144   1.342       .  A
C59         N147   1.370       .  A
C59          C69   1.464       .  S
N60          C61   1.370       .  A
N60         C233   1.369   1_554  A
C61          N62   1.353       .  A
C61          C73   1.464       .  S
In63         O65   2.266       .  S
In63         O66   2.176       .  S
In63         O74   2.210       .  S
In63         O68   2.288       .  S
In63         O70   2.288       .  S
In63         O71   2.176       .  S
In63         O72   2.211       .  S
In63         O75   2.267       .  S
C64          O70   1.280       .  A
C64          O72   1.262       .  A
O65          C73   1.269       .  A
O66          C73   1.266       .  A
C67          O74   1.262       .  A
C67          O68   1.280       .  A
C69          O71   1.266       .  A
C69          O75   1.269       .  A
C76          N81   1.352       .  A
C76         N338   1.351       .  A
C76          C84   1.414       .  S
N77          C78   1.351       .  A
N77         C337   1.351   1_545  A
C78          N79   1.351       .  A
C78          C83   1.414       .  S
N79          C80   1.351   1_545  A
C80         N342   1.351       .  A
C80         C609   1.414   1_455  S
N81         C341   1.351       .  A
C82          C83   1.193       .  T
C84          C85   1.193       .  T
C86          C87   1.193       .  T
C87         C602   1.414       .  S
C88          N93   1.342       .  A
C88         C173   1.414       .  S
N89         C175   1.342   1_545  A
N89         C351   1.353       .  A
C90         N350   1.353       .  A
C90          N91   1.369       .  A
C90         C100   1.463       .  S
N91         C179   1.369       .  A
C92         N354   1.353       .  A
C92         C104   1.463       .  S
N93         C353   1.353       .  A
In94        O357   2.267       .  S
In94         O97   2.172       .  S
In94        O366   2.201       .  S
In94        O360   2.285       .  S
In94        O101   2.279       .  S
In94        O102   2.171       .  S
In94        O103   2.207       .  S
In94        O367   2.267       .  S
C95         C139   1.493       .  S
C95         O101   1.280       .  A
C95         O103   1.262       .  A
O96        In355   2.267       .  S
O96         C365   1.269       .  A
O97         C104   1.266       .  A
C98         C128   1.493       .  S
C98         O105   1.262       .  A
C98          O99   1.280       .  A
O99        In355   2.285       .  S
C100        O102   1.266       .  A
C100        O367   1.269       .  A
C104        O357   1.269       .  A
O105       In355   2.201       .  S
O106       In355   2.267       .  S
O106        C361   1.269       .  A
C107        N108   1.342       .  A
C107        C172   1.414       .  S
N108        C109   1.353       .  A
C109        N110   1.370       .  A
C109        C123   1.463       .  S
C111        N197   1.369       .  A
C111        N112   1.353       .  A
C111        C119   1.463       .  S
N112        C194   1.342       .  A
In113       O115   2.269       .  S
In113       O116   2.170       .  S
In113       O646   2.206   1_455  S
In113       O640   2.276   1_455  S
In113       O120   2.284       .  S
In113       O121   2.172       .  S
In113       O122   2.200       .  S
In113       O125   2.267       .  S
C114        C137   1.493       .  S
C114        O120   1.280       .  A
C114        O122   1.262       .  A
O115        C123   1.269       .  A
O116        C123   1.266       .  A
C117        C130   1.492       .  S
C117        O124   1.262       .  A
C117        O118   1.280       .  A
O118       In635   2.276       .  S
C119        O121   1.266       .  A
C119        O125   1.269       .  A
O124       In635   2.206       .  S
C126        C154   1.496       .  S
C126        C127   1.416       .  A
C126        C131   1.407       .  A
C127        C128   1.406       .  A
C127        H132   1.083       .  S
C128        C129   1.413       .  A
C129        C130   1.403       .  A
C129        H133   1.083       .  S
C130        C131   1.416       .  A
C131        H134   1.083       .  S
C135        C151   1.496       .  S
C135        C136   1.416       .  A
C135        C140   1.407       .  A
C136        C137   1.406       .  A
C136        H141   1.083       .  S
C137        C138   1.413       .  A
C138        C139   1.404       .  A
C138        H142   1.083       .  S
C139        C140   1.416       .  A
C140        H143   1.083       .  S
C144        N149   1.342       .  A
C144        C169   1.413       .  S
N145        C231   1.342       .  A
N145        C146   1.353       .  A
C146        N234   1.369       .  A
C146        C156   1.464       .  S
N147        C148   1.370       .  A
C148        N149   1.353       .  A
C148        C160   1.464       .  S
In150       O152   2.268       .  S
In150       O153   2.174       .  S
In150       O161   2.208       .  S
In150       O155   2.288       .  S
In150       O157   2.287       .  S
In150       O158   2.175       .  S
In150       O159   2.210       .  S
In150       O162   2.267       .  S
C151        O157   1.280       .  A
C151        O159   1.262       .  A
O152        C160   1.269       .  A
O153        C160   1.266       .  A
C154        O161   1.262       .  A
C154        O155   1.280       .  A
C156        O158   1.266       .  A
C156        O162   1.269       .  A
C163        N425   1.351       .  A
C163        N168   1.352       .  A
C163        C171   1.414       .  S
N164        C424   1.351       .  A
N164        C165   1.351   1_565  A
C165        N166   1.351       .  A
C165        C170   1.414       .  S
N166        C167   1.351   1_545  A
C167        N429   1.352       .  A
C167        C696   1.414   1_465  S
N168        C428   1.352       .  A
C169        C170   1.193       .  T
C171        C172   1.193       .  T
C173        C174   1.193       .  T
C174        C689   1.414   1_545  S
C175        N180   1.342   1_565  A
C175        C260   1.415       .  S
N176        C438   1.353       .  A
C177        N437   1.353       .  A
C177        N178   1.369   1_556  A
C177        C187   1.463       .  S
C179        N441   1.353       .  A
C179        C191   1.463       .  S
N180        C440   1.353       .  A
In181       O444   2.268       .  S
In181       O184   2.173       .  S
In181       O453   2.200       .  S
In181       O447   2.284       .  S
In181       O188   2.277       .  S
In181       O189   2.171       .  S
In181       O190   2.207       .  S
In181       O454   2.268       .  S
C182        C226   1.493       .  S
C182        O188   1.280       .  A
C182        O190   1.262       .  A
O183       In442   2.268       .  S
O183        C452   1.269       .  A
O184        C191   1.266       .  A
C185        C215   1.493       .  S
C185        O192   1.262       .  A
C185        O186   1.279       .  A
O186       In442   2.284       .  S
C187        O189   1.266       .  A
C187        O454   1.269       .  A
C191        O444   1.269       .  A
O192       In442   2.200       .  S
O193       In442   2.268   1_565  S
O193        C448   1.269   1_565  A
C194        N195   1.342       .  A
C194        C259   1.415       .  S
N195        C196   1.353       .  A
C196        N197   1.369       .  A
C196        C210   1.463       .  S
C198        N199   1.353       .  A
C198        C206   1.463       .  S
In200       O202   2.266       .  S
In200       O203   2.173       .  S
In200       O733   2.208   1_455  S
In200       O727   2.279   1_455  S
In200       O207   2.287       .  S
In200       O208   2.173       .  S
In200       O209   2.201       .  S
In200       O212   2.267       .  S
C201        C224   1.494       .  S
C201        O207   1.280       .  A
C201        O209   1.262       .  A
O202        C210   1.269       .  A
O203        C210   1.266       .  A
C204        C217   1.493       .  S
C204        O211   1.262       .  A
C204        O205   1.280       .  A
O205       In722   2.279       .  S
C206        O208   1.266       .  A
C206        O212   1.269       .  A
O211       In722   2.208       .  S
C213        C241   1.496       .  S
C213        C214   1.416       .  A
C213        C218   1.407       .  A
C214        C215   1.406       .  A
C214        H219   1.083       .  S
C215        C216   1.413       .  A
C216        C217   1.404       .  A
C216        H220   1.083       .  S
C217        C218   1.416       .  A
C218        H221   1.083       .  S
C222        C238   1.496       .  S
C222        C223   1.416       .  A
C222        C227   1.407       .  A
C223        C224   1.406       .  A
C223        H228   1.083       .  S
C224        C225   1.413       .  A
C225        C226   1.404       .  A
C225        H229   1.083       .  S
C226        C227   1.415       .  A
C227        H230   1.083       .  S
C231        N236   1.343       .  A
C231        C256   1.415       .  S
N232        C233   1.353       .  A
C233        C243   1.464       .  S
N234        C235   1.369       .  A
C235        N236   1.353       .  A
C235        C247   1.464       .  S
In237       O239   2.267       .  S
In237       O240   2.176       .  S
In237       O248   2.209       .  S
In237       O242   2.287       .  S
In237       O244   2.288       .  S
In237       O245   2.175       .  S
In237       O246   2.209       .  S
In237       O249   2.269       .  S
C238        O244   1.280       .  A
C238        O246   1.262       .  A
O239        C247   1.269       .  A
O240        C247   1.266       .  A
C241        O248   1.262       .  A
C241        O242   1.280       .  A
C243        O245   1.266       .  A
C243        O249   1.269       .  A
C250        N512   1.352       .  A
C250        N255   1.352       .  A
C250        C258   1.415       .  S
N251        C511   1.352       .  A
N251        C252   1.351   1_565  A
C252        N253   1.351       .  A
C252        C257   1.415       .  S
N253        C254   1.351   1_545  A
C254        N516   1.352       .  A
C254        C783   1.415   1_455  S
N255        C515   1.352       .  A
C256        C257   1.193       .  T
C258        C259   1.193       .  T
C260        C261   1.193       .  T
C261        C776   1.415       .  S
C262        N437   1.342       .  A
C262        N267   1.342   1_556  A
C262        C347   1.414       .  S
N263        C349   1.342       .  A
C264        N265   1.369       .  A
C264        C274   1.464       .  S
N265        C353   1.369       .  A
C266        N439   1.370       .  A
C266        C278   1.463   1_565  S
In268       O271   2.174       .  S
In268       O275   2.278   1_545  S
In268       O276   2.175       .  S
In268       O277   2.208   1_545  S
C269        C313   1.493       .  S
C269        O275   1.280       .  A
C269        O277   1.262       .  A
O271        C278   1.266       .  A
C272        C302   1.493       .  S
C272        O279   1.262       .  A
C272        O273   1.279       .  A
C274        O276   1.266       .  A
C281        N282   1.342   1_556  A
C281        N460   1.342       .  A
C281        C346   1.414       .  S
N282        C283   1.353       .  A
C283        N284   1.369   1_554  A
C283        C297   1.463       .  S
N284        C459   1.369       .  A
C285        N371   1.370       .  A
C285        N286   1.353       .  A
C285        C293   1.464       .  S
N286        C368   1.342       .  A
In287       O289   2.267       .  S
In287       O290   2.175       .  S
In287       O820   2.209   1_455  S
In287       O814   2.279   1_455  S
In287       O294   2.285       .  S
In287       O295   2.173       .  S
In287       O296   2.203       .  S
In287       O299   2.267       .  S
C288        C311   1.494       .  S
C288        O294   1.280       .  A
C288        O296   1.262       .  A
O289        C297   1.269       .  A
O290        C297   1.266       .  A
C291        C304   1.494       .  S
C291        O298   1.262       .  A
C291        O292   1.280       .  A
O292       In809   2.279       .  S
C293        O295   1.266       .  A
C293        O299   1.269       .  A
O298       In809   2.209       .  S
C300        C328   1.497       .  S
C300        C301   1.416       .  A
C300        C305   1.408       .  A
C301        C302   1.406       .  A
C301        H306   1.083       .  S
C302        C303   1.413       .  A
C303        C304   1.404       .  A
C303        H307   1.083       .  S
C304        C305   1.416       .  A
C305        H308   1.083       .  S
C309        C325   1.496       .  S
C309        C310   1.416       .  A
C309        C314   1.407       .  A
C310        C311   1.407       .  A
C310        H315   1.083       .  S
C311        C312   1.413       .  A
C312        C313   1.404       .  A
C312        H316   1.083       .  S
C313        C314   1.416       .  A
C314        H317   1.083       .  S
C318        N493   1.342       .  A
C318        N323   1.343   1_556  A
C318        C343   1.414       .  S
N319        C405   1.342       .  A
N319        C320   1.353       .  A
C320        N408   1.370       .  A
C320        C330   1.464       .  S
N321        C494   1.369   1_554  A
N321        C322   1.370       .  A
C322        N323   1.353       .  A
C322        C334   1.464       .  S
In324       O326   2.266       .  S
In324       O327   2.176       .  S
In324       O335   2.211       .  S
In324       O329   2.288       .  S
In324       O331   2.288       .  S
In324       O332   2.177       .  S
In324       O333   2.211       .  S
In324       O336   2.267       .  S
C325        O331   1.280       .  A
C325        O333   1.262       .  A
O326        C334   1.269       .  A
O327        C334   1.266       .  A
C328        O335   1.262       .  A
C328        O329   1.280       .  A
C330        O332   1.266       .  A
C330        O336   1.269       .  A
C337        N342   1.352       .  A
C337        C345   1.414       .  S
N338        C339   1.351       .  A
C339        N340   1.351       .  A
C339        C344   1.414       .  S
N340        C341   1.352       .  A
C341        C870   1.414   1_455  S
C343        C344   1.193       .  T
C345        C346   1.193       .  T
C347        C348   1.193       .  T
C348        C863   1.414       .  S
C349        N354   1.342       .  A
C349        C434   1.414       .  S
N350        C436   1.342       .  A
C351        N352   1.369       .  A
C351        C361   1.463       .  S
N352        C440   1.369       .  A
C353        C365   1.463       .  S
In355       O358   2.172       .  S
In355       O362   2.279   1_545  S
In355       O363   2.171       .  S
In355       O364   2.208   1_545  S
C356        C400   1.493       .  S
C356        O362   1.280       .  A
C356        O364   1.262       .  A
O358        C365   1.266       .  A
C359        C389   1.493       .  S
C359        O366   1.262       .  A
C359        O360   1.280       .  A
C361        O363   1.266       .  A
C368        N369   1.342       .  A
C368        C433   1.414       .  S
N369        C370   1.353       .  A
C370        N371   1.369       .  A
C370        C384   1.463       .  S
C372        N458   1.369       .  A
C372        N373   1.353       .  A
C372        C380   1.463       .  S
N373        C455   1.342       .  A
In374       O376   2.269       .  S
In374       O377   2.171       .  S
In374       O907   2.206   1_455  S
In374       O901   2.276   1_455  S
In374       O381   2.284       .  S
In374       O382   2.172       .  S
In374       O383   2.200       .  S
In374       O386   2.268       .  S
C375        C398   1.493       .  S
C375        O381   1.280       .  A
C375        O383   1.262       .  A
O376        C384   1.269       .  A
O377        C384   1.266       .  A
C378        C391   1.492       .  S
C378        O385   1.262       .  A
C378        O379   1.280       .  A
O379       In896   2.276       .  S
C380        O382   1.266       .  A
C380        O386   1.269       .  A
O385       In896   2.206       .  S
C387        C415   1.496       .  S
C387        C388   1.416       .  A
C387        C392   1.407       .  A
C388        C389   1.406       .  A
C388        H393   1.083       .  S
C389        C390   1.413       .  A
C390        C391   1.403       .  A
C390        H394   1.083       .  S
C391        C392   1.416       .  A
C392        H395   1.083       .  S
C396        C412   1.496       .  S
C396        C397   1.416       .  A
C396        C401   1.407       .  A
C397        C398   1.406       .  A
C397        H402   1.083       .  S
C398        C399   1.413       .  A
C399        C400   1.404       .  A
C399        H403   1.083       .  S
C400        C401   1.416       .  A
C401        H404   1.083       .  S
C405        N410   1.342       .  A
C405        C430   1.413       .  S
N406        C492   1.342       .  A
N406        C407   1.353       .  A
C407        N495   1.369       .  A
C407        C417   1.464       .  S
N408        C409   1.370       .  A
C409        N410   1.353       .  A
C409        C421   1.464       .  S
In411       O413   2.268       .  S
In411       O414   2.174       .  S
In411       O422   2.208       .  S
In411       O416   2.288       .  S
In411       O418   2.287       .  S
In411       O419   2.175       .  S
In411       O420   2.210       .  S
In411       O423   2.268       .  S
C412        O418   1.280       .  A
C412        O420   1.262       .  A
O413        C421   1.269       .  A
O414        C421   1.266       .  A
C415        O422   1.262       .  A
C415        O416   1.280       .  A
C417        O419   1.266       .  A
C417        O423   1.269       .  A
C424        N429   1.352       .  A
C424        C432   1.414       .  S
N425        C426   1.351       .  A
C426        N427   1.351       .  A
C426        C431   1.414       .  S
N427        C428   1.351       .  A
C428        C957   1.414   1_455  S
C430        C431   1.193       .  T
C432        C433   1.193       .  T
C434        C435   1.193       .  T
C435        C950   1.414       .  S
C436        N441   1.342       .  A
C436        C521   1.415       .  S
C438        N439   1.369   1_556  A
C438        C448   1.463   1_565  S
C440        C452   1.463       .  S
In442       O445   2.173       .  S
In442       O449   2.277   1_545  S
In442       O450   2.172       .  S
In442       O451   2.207   1_545  S
C443        C487   1.493       .  S
C443        O449   1.280       .  A
C443        O451   1.262       .  A
O445        C452   1.266       .  A
C446        C476   1.493       .  S
C446        O453   1.262       .  A
C446        O447   1.280       .  A
C448        O450   1.266       .  A
C455        N456   1.342       .  A
C455        C520   1.415       .  S
N456        C457   1.353       .  A
C457        N458   1.369       .  A
C457        C471   1.463       .  S
C459        N460   1.353       .  A
C459        C467   1.463       .  S
In461       O463   2.266       .  S
In461       O464   2.173       .  S
In461       O994   2.208   1_455  S
In461       O988   2.279   1_455  S
In461       O468   2.287       .  S
In461       O469   2.173       .  S
In461       O470   2.201       .  S
In461       O473   2.267       .  S
C462        C485   1.494       .  S
C462        O468   1.280       .  A
C462        O470   1.262       .  A
O463        C471   1.269       .  A
O464        C471   1.266       .  A
C465        C478   1.493       .  S
C465        O472   1.262       .  A
C465        O466   1.280       .  A
O466       In983   2.279       .  S
C467        O469   1.266       .  A
C467        O473   1.269       .  A
O472       In983   2.208       .  S
C474        C502   1.496       .  S
C474        C475   1.416       .  A
C474        C479   1.407       .  A
C475        C476   1.406       .  A
C475        H480   1.083       .  S
C476        C477   1.413       .  A
C477        C478   1.404       .  A
C477        H481   1.083       .  S
C478        C479   1.416       .  A
C479        H482   1.083       .  S
C483        C499   1.496       .  S
C483        C484   1.416       .  A
C483        C488   1.407       .  A
C484        C485   1.406       .  A
C484        H489   1.083       .  S
C485        C486   1.413       .  A
C486        C487   1.404       .  A
C486        H490   1.083       .  S
C487        C488   1.415       .  A
C488        H491   1.083       .  S
C492        N497   1.343       .  A
C492        C517   1.415       .  S
N493        C494   1.353       .  A
C494        C504   1.464       .  S
N495        C496   1.369       .  A
C496        N497   1.353       .  A
C496        C508   1.464       .  S
In498       O500   2.267       .  S
In498       O501   2.176       .  S
In498       O509   2.208       .  S
In498       O503   2.287       .  S
In498       O505   2.288       .  S
In498       O506   2.175       .  S
In498       O507   2.209       .  S
In498       O510   2.269       .  S
C499        O505   1.280       .  A
C499        O507   1.262       .  A
O500        C508   1.269       .  A
O501        C508   1.266       .  A
C502        O509   1.262       .  A
C502        O503   1.280       .  A
C504        O506   1.266       .  A
C504        O510   1.269       .  A
C511        N516   1.352       .  A
C511        C519   1.415       .  S
N512        C513   1.351       .  A
C513        N514   1.351       .  A
C513        C518   1.415       .  S
N514        C515   1.351       .  A
C515       C1044   1.415   1_455  S
C517        C518   1.193       .  T
C519        C520   1.193       .  T
C521        C522   1.193       .  T
C522       C1037   1.415       .  S
C523        N698   1.342       .  A
C523        N528   1.342   1_556  A
C523        C608   1.414       .  S
N524        C610   1.343       .  A
N524        C786   1.353       .  A
C525        N785   1.353       .  A
C525        N526   1.369       .  A
C525        C535   1.464       .  S
N526        C614   1.369       .  A
C527        N700   1.370       .  A
C527        N789   1.353       .  A
C527        C539   1.463       .  S
N528        C788   1.353       .  A
In529       O792   2.266       .  S
In529       O532   2.174       .  S
In529       O801   2.201       .  S
In529       O795   2.285       .  S
In529       O536   2.277       .  S
In529       O537   2.175       .  S
In529       O538   2.208       .  S
In529       O802   2.267       .  S
C530        C574   1.493       .  S
C530        O536   1.280       .  A
C530        O538   1.262       .  A
O531       In790   2.267   1_565  S
O531        C800   1.269   1_565  A
O532        C539   1.266       .  A
C533        C563   1.493       .  S
C533        O540   1.262       .  A
C533        O534   1.279       .  A
O534       In790   2.285       .  S
C535        O537   1.266       .  A
C535        O802   1.269       .  A
C539        O792   1.269       .  A
O540       In790   2.201       .  S
O541       In790   2.267       .  S
O541        C796   1.269       .  A
C542        N543   1.342   1_556  A
C542        N721   1.342       .  A
C542        C607   1.414       .  S
N543        C544   1.353       .  A
C544        N545   1.369   1_554  A
C544        C558   1.463       .  S
N545        C720   1.369       .  A
C546        N632   1.370       .  A
C546        N547   1.353       .  A
C546        C554   1.464       .  S
N547        C629   1.342       .  A
In548       O550   2.267       .  S
In548       O551   2.175       .  S
In548       O555   2.285       .  S
In548       O556   2.173       .  S
In548       O557   2.203       .  S
In548       O560   2.267       .  S
C549        C572   1.494       .  S
C549        O555   1.279       .  A
C549        O557   1.262       .  A
O550        C558   1.269       .  A
O551        C558   1.266       .  A
C552        C565   1.493       .  S
C552        O559   1.262       .  A
C552        O553   1.280       .  A
C554        O556   1.266       .  A
C554        O560   1.269       .  A
C561        C589   1.496       .  S
C561        C562   1.416       .  A
C561        C566   1.408       .  A
C562        C563   1.406       .  A
C562        H567   1.083       .  S
C563        C564   1.413       .  A
C564        C565   1.404       .  A
C564        H568   1.083       .  S
C565        C566   1.416       .  A
C566        H569   1.083       .  S
C570        C586   1.496       .  S
C570        C571   1.416       .  A
C570        C575   1.407       .  A
C571        C572   1.407       .  A
C571        H576   1.083       .  S
C572        C573   1.413       .  A
C573        C574   1.404       .  A
C573        H577   1.083       .  S
C574        C575   1.416       .  A
C575        H578   1.083       .  S
C579        N754   1.342       .  A
C579        N584   1.342   1_556  A
C579        C604   1.414       .  S
N580        C666   1.342       .  A
N580        C581   1.353       .  A
C581        N669   1.370       .  A
C581        C591   1.464       .  S
N582        C755   1.369   1_554  A
N582        C583   1.370       .  A
C583        N584   1.353       .  A
C583        C595   1.464       .  S
In585       O587   2.266       .  S
In585       O588   2.176       .  S
In585       O596   2.210       .  S
In585       O590   2.288       .  S
In585       O592   2.288       .  S
In585       O593   2.176       .  S
In585       O594   2.211       .  S
In585       O597   2.266       .  S
C586        O592   1.280       .  A
C586        O594   1.262       .  A
O587        C595   1.269       .  A
O588        C595   1.266       .  A
C589        O596   1.262       .  A
C589        O590   1.280       .  A
C591        O593   1.266       .  A
C591        O597   1.269       .  A
C598        N860   1.351       .  A
C598        N603   1.352       .  A
C598        C606   1.414       .  S
N599        C859   1.351   1_545  A
N599        C600   1.351       .  A
C600        N601   1.351       .  A
C600        C605   1.414       .  S
N601        C602   1.351   1_545  A
C602        N864   1.351       .  A
N603        C863   1.351       .  A
C604        C605   1.193       .  T
C606        C607   1.193       .  T
C608        C609   1.193       .  T
C610        N615   1.342       .  A
C610        C695   1.414       .  S
N611        C697   1.342       .  A
N611        C873   1.353       .  A
C612        N872   1.353       .  A
C612        N613   1.369       .  A
C612        C622   1.463       .  S
N613        C701   1.369       .  A
C614        N876   1.353       .  A
C614        C626   1.463       .  S
N615        C875   1.353       .  A
In616       O879   2.267       .  S
In616       O619   2.172       .  S
In616       O888   2.201       .  S
In616       O882   2.285       .  S
In616       O623   2.279       .  S
In616       O624   2.171       .  S
In616       O625   2.207       .  S
In616       O889   2.267       .  S
C617        C661   1.493       .  S
C617        O623   1.280       .  A
C617        O625   1.262       .  A
O618       In877   2.267       .  S
O618        C887   1.269       .  A
O619        C626   1.266       .  A
C620        C650   1.493       .  S
C620        O627   1.262       .  A
C620        O621   1.280       .  A
O621       In877   2.285       .  S
C622        O624   1.266       .  A
C622        O889   1.269       .  A
C626        O879   1.269       .  A
O627       In877   2.201       .  S
O628       In877   2.267       .  S
O628        C883   1.269       .  A
C629        N630   1.342       .  A
C629        C694   1.414       .  S
N630        C631   1.353       .  A
C631        N632   1.370       .  A
C631        C645   1.463       .  S
C633        N719   1.369       .  A
C633        N634   1.353       .  A
C633        C641   1.463       .  S
N634        C716   1.342       .  A
In635       O637   2.269       .  S
In635       O638   2.170       .  S
In635       O642   2.284       .  S
In635       O643   2.172       .  S
In635       O644   2.200       .  S
In635       O647   2.267       .  S
C636        C659   1.493       .  S
C636        O642   1.280       .  A
C636        O644   1.262       .  A
O637        C645   1.269       .  A
O638        C645   1.266       .  A
C639        C652   1.492       .  S
C639        O646   1.262       .  A
C639        O640   1.280       .  A
C641        O643   1.266       .  A
C641        O647   1.269       .  A
C648        C676   1.496       .  S
C648        C649   1.416       .  A
C648        C653   1.407       .  A
C649        C650   1.406       .  A
C649        H654   1.083       .  S
C650        C651   1.413       .  A
C651        C652   1.403       .  A
C651        H655   1.083       .  S
C652        C653   1.416       .  A
C653        H656   1.083       .  S
C657        C673   1.496       .  S
C657        C658   1.416       .  A
C657        C662   1.407       .  A
C658        C659   1.406       .  A
C658        H663   1.083       .  S
C659        C660   1.413       .  A
C660        C661   1.404       .  A
C660        H664   1.083       .  S
C661        C662   1.416       .  A
C662        H665   1.083       .  S
C666        N671   1.342       .  A
C666        C691   1.414       .  S
N667        C753   1.342       .  A
N667        C668   1.353       .  A
C668        N756   1.369       .  A
C668        C678   1.464       .  S
N669        C670   1.369       .  A
C670        N671   1.353       .  A
C670        C682   1.464       .  S
In672       O674   2.268       .  S
In672       O675   2.174       .  S
In672       O683   2.208       .  S
In672       O677   2.288       .  S
In672       O679   2.287       .  S
In672       O680   2.175       .  S
In672       O681   2.210       .  S
In672       O684   2.268       .  S
C673        O679   1.280       .  A
C673        O681   1.262       .  A
O674        C682   1.269       .  A
O675        C682   1.266       .  A
C676        O683   1.262       .  A
C676        O677   1.280       .  A
C678        O680   1.266       .  A
C678        O684   1.269       .  A
C685        N947   1.351       .  A
C685        N690   1.352       .  A
C685        C693   1.414       .  S
N686        C946   1.351       .  A
N686        C687   1.351   1_565  A
C687        N688   1.351       .  A
C687        C692   1.414       .  S
N688        C689   1.351   1_545  A
C689        N951   1.352       .  A
N690        C950   1.352       .  A
C691        C692   1.193       .  T
C693        C694   1.193       .  T
C695        C696   1.193       .  T
C697        N702   1.342       .  A
C697        C782   1.415   1_545  S
N698        C960   1.353       .  A
C699        N959   1.353       .  A
C699        N700   1.369   1_556  A
C699        C709   1.463       .  S
C701        N963   1.353       .  A
C701        C713   1.463       .  S
N702        C962   1.353       .  A
In703       O966   2.268       .  S
In703       O706   2.173       .  S
In703       O975   2.200       .  S
In703       O969   2.284       .  S
In703       O710   2.277       .  S
In703       O711   2.171       .  S
In703       O712   2.207       .  S
In703       O976   2.268       .  S
C704        C748   1.493       .  S
C704        O710   1.280       .  A
C704        O712   1.262       .  A
O705       In964   2.268       .  S
O705        C974   1.269       .  A
O706        C713   1.266       .  A
C707        C737   1.493       .  S
C707        O714   1.262       .  A
C707        O708   1.279       .  A
O708       In964   2.284       .  S
C709        O711   1.266       .  A
C709        O976   1.269       .  A
C713        O966   1.269       .  A
O714       In964   2.200       .  S
O715       In964   2.268   1_565  S
O715        C970   1.269   1_565  A
C716        N717   1.342       .  A
C716        C781   1.415       .  S
N717        C718   1.353       .  A
C718        N719   1.369       .  A
C718        C732   1.463       .  S
C720        N721   1.353       .  A
C720        C728   1.463       .  S
In722       O724   2.266       .  S
In722       O725   2.173       .  S
In722       O729   2.287       .  S
In722       O730   2.173       .  S
In722       O731   2.201       .  S
In722       O734   2.267       .  S
C723        C746   1.494       .  S
C723        O729   1.280       .  A
C723        O731   1.262       .  A
O724        C732   1.269       .  A
O725        C732   1.266       .  A
C726        C739   1.493       .  S
C726        O733   1.262       .  A
C726        O727   1.280       .  A
C728        O730   1.266       .  A
C728        O734   1.269       .  A
C735        C763   1.496       .  S
C735        C736   1.416       .  A
C735        C740   1.407       .  A
C736        C737   1.406       .  A
C736        H741   1.083       .  S
C737        C738   1.413       .  A
C738        C739   1.404       .  A
C738        H742   1.083       .  S
C739        C740   1.416       .  A
C740        H743   1.083       .  S
C744        C760   1.496       .  S
C744        C745   1.416       .  A
C744        C749   1.407       .  A
C745        C746   1.406       .  A
C745        H750   1.083       .  S
C746        C747   1.413       .  A
C747        C748   1.404       .  A
C747        H751   1.083       .  S
C748        C749   1.415       .  A
C749        H752   1.083       .  S
C753        N758   1.343       .  A
C753        C778   1.415       .  S
N754        C755   1.353       .  A
C755        C765   1.464       .  S
N756        C757   1.369       .  A
C757        N758   1.353       .  A
C757        C769   1.464       .  S
In759       O761   2.267       .  S
In759       O762   2.176       .  S
In759       O770   2.209       .  S
In759       O764   2.287       .  S
In759       O766   2.288       .  S
In759       O767   2.175       .  S
In759       O768   2.209       .  S
In759       O771   2.269       .  S
C760        O766   1.280       .  A
C760        O768   1.262       .  A
O761        C769   1.269       .  A
O762        C769   1.266       .  A
C763        O770   1.262       .  A
C763        O764   1.280       .  A
C765        O767   1.266       .  A
C765        O771   1.269       .  A
C772       N1034   1.352       .  A
C772        N777   1.352       .  A
C772        C780   1.415       .  S
N773       C1033   1.352       .  A
N773        C774   1.351   1_565  A
C774        N775   1.351       .  A
C774        C779   1.415       .  S
N775        C776   1.351   1_545  A
C776       N1038   1.352       .  A
N777       C1037   1.352       .  A
C778        C779   1.193       .  T
C780        C781   1.193       .  T
C782        C783   1.193       .  T
C784        N959   1.342       .  A
C784        N789   1.342   1_556  A
C784        C869   1.414       .  S
N785        C871   1.342       .  A
C786        N787   1.369       .  A
C786        C796   1.464       .  S
N787        C875   1.369       .  A
C788        N961   1.370       .  A
C788        C800   1.463   1_565  S
In790       O793   2.174       .  S
In790       O797   2.278   1_545  S
In790       O798   2.175       .  S
In790       O799   2.208   1_545  S
C791        C835   1.493       .  S
C791        O797   1.280       .  A
C791        O799   1.262       .  A
O793        C800   1.266       .  A
C794        C824   1.493       .  S
C794        O801   1.262       .  A
C794        O795   1.279       .  A
C796        O798   1.266       .  A
C803        N804   1.342   1_556  A
C803        N982   1.342       .  A
C803        C868   1.414       .  S
N804        C805   1.353       .  A
C805        N806   1.369   1_554  A
C805        C819   1.463       .  S
N806        C981   1.369       .  A
C807        N893   1.370       .  A
C807        N808   1.353       .  A
C807        C815   1.464       .  S
N808        C890   1.342       .  A
In809       O811   2.267       .  S
In809       O812   2.174       .  S
In809       O816   2.285       .  S
In809       O817   2.173       .  S
In809       O818   2.203       .  S
In809       O821   2.267       .  S
C810        C833   1.494       .  S
C810        O816   1.279       .  A
C810        O818   1.262       .  A
O811        C819   1.269       .  A
O812        C819   1.266       .  A
C813        C826   1.494       .  S
C813        O820   1.262       .  A
C813        O814   1.280       .  A
C815        O817   1.266       .  A
C815        O821   1.269       .  A
C822        C850   1.497       .  S
C822        C823   1.416       .  A
C822        C827   1.408       .  A
C823        C824   1.406       .  A
C823        H828   1.083       .  S
C824        C825   1.413       .  A
C825        C826   1.404       .  A
C825        H829   1.083       .  S
C826        C827   1.416       .  A
C827        H830   1.083       .  S
C831        C847   1.496       .  S
C831        C832   1.416       .  A
C831        C836   1.407       .  A
C832        C833   1.407       .  A
C832        H837   1.083       .  S
C833        C834   1.413       .  A
C834        C835   1.404       .  A
C834        H838   1.083       .  S
C835        C836   1.416       .  A
C836        H839   1.083       .  S
C840       N1015   1.342       .  A
C840        N845   1.343   1_556  A
C840        C865   1.414       .  S
N841        C927   1.342       .  A
N841        C842   1.353       .  A
C842        N930   1.370       .  A
C842        C852   1.464       .  S
N843       C1016   1.369   1_554  A
N843        C844   1.370       .  A
C844        N845   1.353       .  A
C844        C856   1.464       .  S
In846       O848   2.266       .  S
In846       O849   2.176       .  S
In846       O857   2.211       .  S
In846       O851   2.288       .  S
In846       O853   2.288       .  S
In846       O854   2.176       .  S
In846       O855   2.211       .  S
In846       O858   2.267       .  S
C847        O853   1.280       .  A
C847        O855   1.262       .  A
O848        C856   1.269       .  A
O849        C856   1.266       .  A
C850        O857   1.262       .  A
C850        O851   1.280       .  A
C852        O854   1.266       .  A
C852        O858   1.269       .  A
C859        N864   1.352       .  A
C859        C867   1.414       .  S
N860        C861   1.351       .  A
C861        N862   1.351       .  A
C861        C866   1.414       .  S
N862        C863   1.351       .  A
C865        C866   1.193       .  T
C867        C868   1.193       .  T
C869        C870   1.193       .  T
C871        N876   1.342       .  A
C871        C956   1.414       .  S
N872        C958   1.342       .  A
C873        N874   1.369       .  A
C873        C883   1.463       .  S
N874        C962   1.369       .  A
C875        C887   1.463       .  S
In877       O880   2.172       .  S
In877       O884   2.279   1_545  S
In877       O885   2.171       .  S
In877       O886   2.208   1_545  S
C878        C922   1.493       .  S
C878        O884   1.280       .  A
C878        O886   1.262       .  A
O880        C887   1.266       .  A
C881        C911   1.493       .  S
C881        O888   1.262       .  A
C881        O882   1.280       .  A
C883        O885   1.266       .  A
C890        N891   1.342       .  A
C890        C955   1.414       .  S
N891        C892   1.353       .  A
C892        N893   1.369       .  A
C892        C906   1.463       .  S
C894        N980   1.369       .  A
C894        N895   1.353       .  A
C894        C902   1.463       .  S
N895        C977   1.342       .  A
In896       O898   2.269       .  S
In896       O899   2.171       .  S
In896       O903   2.284       .  S
In896       O904   2.172       .  S
In896       O905   2.200       .  S
In896       O908   2.267       .  S
C897        C920   1.493       .  S
C897        O903   1.280       .  A
C897        O905   1.262       .  A
O898        C906   1.269       .  A
O899        C906   1.266       .  A
C900        C913   1.492       .  S
C900        O907   1.262       .  A
C900        O901   1.280       .  A
C902        O904   1.266       .  A
C902        O908   1.269       .  A
C909        C937   1.496       .  S
C909        C910   1.416       .  A
C909        C914   1.407       .  A
C910        C911   1.406       .  A
C910        H915   1.083       .  S
C911        C912   1.413       .  A
C912        C913   1.403       .  A
C912        H916   1.083       .  S
C913        C914   1.416       .  A
C914        H917   1.083       .  S
C918        C934   1.496       .  S
C918        C919   1.416       .  A
C918        C923   1.407       .  A
C919        C920   1.406       .  A
C919        H924   1.083       .  S
C920        C921   1.413       .  A
C921        C922   1.404       .  A
C921        H925   1.083       .  S
C922        C923   1.416       .  A
C923        H926   1.083       .  S
C927        N932   1.342       .  A
C927        C952   1.413       .  S
N928       C1014   1.342       .  A
N928        C929   1.353       .  A
C929       N1017   1.369       .  A
C929        C939   1.464       .  S
N930        C931   1.370       .  A
C931        N932   1.353       .  A
C931        C943   1.464       .  S
In933       O935   2.268       .  S
In933       O936   2.174       .  S
In933       O944   2.208       .  S
In933       O938   2.288       .  S
In933       O940   2.287       .  S
In933       O941   2.175       .  S
In933       O942   2.210       .  S
In933       O945   2.268       .  S
C934        O940   1.280       .  A
C934        O942   1.262       .  A
O935        C943   1.269       .  A
O936        C943   1.266       .  A
C937        O944   1.262       .  A
C937        O938   1.280       .  A
C939        O941   1.266       .  A
C939        O945   1.269       .  A
C946        N951   1.352       .  A
C946        C954   1.414       .  S
N947        C948   1.351       .  A
C948        N949   1.351       .  A
C948        C953   1.414       .  S
N949        C950   1.351       .  A
C952        C953   1.193       .  T
C954        C955   1.193       .  T
C956        C957   1.193       .  T
C958        N963   1.342       .  A
C958       C1043   1.415       .  S
C960        N961   1.369   1_556  A
C960        C970   1.463   1_565  S
C962        C974   1.463       .  S
In964       O967   2.173       .  S
In964       O971   2.277   1_545  S
In964       O972   2.172       .  S
In964       O973   2.207   1_545  S
C965       C1009   1.493       .  S
C965        O971   1.280       .  A
C965        O973   1.262       .  A
O967        C974   1.266       .  A
C968        C998   1.493       .  S
C968        O975   1.262       .  A
C968        O969   1.280       .  A
C970        O972   1.266       .  A
C977        N978   1.342       .  A
C977       C1042   1.415       .  S
N978        C979   1.353       .  A
C979        N980   1.369       .  A
C979        C993   1.463       .  S
C981        N982   1.353       .  A
C981        C989   1.463       .  S
In983       O985   2.266       .  S
In983       O986   2.173       .  S
In983       O990   2.287       .  S
In983       O991   2.173       .  S
In983       O992   2.201       .  S
In983       O995   2.267       .  S
C984       C1007   1.494       .  S
C984        O990   1.280       .  A
C984        O992   1.262       .  A
O985        C993   1.269       .  A
O986        C993   1.266       .  A
C987       C1000   1.493       .  S
C987        O994   1.262       .  A
C987        O988   1.280       .  A
C989        O991   1.266       .  A
C989        O995   1.269       .  A
C996       C1024   1.496       .  S
C996        C997   1.416       .  A
C996       C1001   1.407       .  A
C997        C998   1.406       .  A
C997       H1002   1.083       .  S
C998        C999   1.413       .  A
C999       C1000   1.404       .  A
C999       H1003   1.083       .  S
C1000      C1001   1.416       .  A
C1001      H1004   1.083       .  S
C1005      C1021   1.496       .  S
C1005      C1006   1.416       .  A
C1005      C1010   1.407       .  A
C1006      C1007   1.406       .  A
C1006      H1011   1.083       .  S
C1007      C1008   1.413       .  A
C1008      C1009   1.404       .  A
C1008      H1012   1.083       .  S
C1009      C1010   1.415       .  A
C1010      H1013   1.083       .  S
C1014      N1019   1.343       .  A
C1014      C1039   1.415       .  S
N1015      C1016   1.353       .  A
C1016      C1026   1.464       .  S
N1017      C1018   1.369       .  A
C1018      N1019   1.353       .  A
C1018      C1030   1.464       .  S
In1020     O1022   2.267       .  S
In1020     O1023   2.176       .  S
In1020     O1031   2.208       .  S
In1020     O1025   2.287       .  S
In1020     O1027   2.288       .  S
In1020     O1028   2.175       .  S
In1020     O1029   2.209       .  S
In1020     O1032   2.269       .  S
C1021      O1027   1.280       .  A
C1021      O1029   1.262       .  A
O1022      C1030   1.269       .  A
O1023      C1030   1.266       .  A
C1024      O1031   1.262       .  A
C1024      O1025   1.280       .  A
C1026      O1028   1.266       .  A
C1026      O1032   1.269       .  A
C1033      N1038   1.352       .  A
C1033      C1041   1.415       .  S
N1034      C1035   1.351       .  A
C1035      N1036   1.351       .  A
C1035      C1040   1.415       .  S
N1036      C1037   1.351       .  A
C1039      C1040   1.193       .  T
C1041      C1042   1.193       .  T
C1043      C1044   1.194       .  T
