geometry optimzed in LAMMPS
_audit_creation_date              2020-11-30 
_audit_creation_method            'lammps2cif' 
_symmetry_space_group_name_H-M    'P1' 
_symmetry_Int_Tables_number       1 
_symmetry_cell_setting            triclinic 
loop_ 
_symmetry_equiv_pos_as_xyz 
  x,y,z 
_cell_length_a                    34.22382288 
_cell_length_b                    33.8683619167601 
_cell_length_c                    43.357201956477276 
_cell_angle_alpha                 89.50403305736457 
_cell_angle_beta                  91.03730720803516 
_cell_angle_gamma                 89.94669603198899 
loop_ 
_atom_site_label 
_atom_site_type_symbol 
_atom_site_fract_x 
_atom_site_fract_y 
_atom_site_fract_z 
_atom_site_charge 
O1          O  0.11544249  0.19959788  0.46551074    -0.72600
O2          O  0.08070328  0.27612576  0.03117561    -0.73600
O3          O  0.08246558  0.27327700  0.46394080    -0.62200
O4          O  0.11079058  0.20125383  0.03337872    -0.70600
O5          O  0.17086591  0.22537330  0.03530806    -0.70100
O6          O  0.14174166  0.29946720  0.46474297    -0.61400
O7          O  0.14079755  0.30027476  0.03278078    -0.73900
O8          O  0.17471153  0.22574582  0.46631961    -0.72700
Cu9        Cu  0.09502861  0.23731668  0.99838687     1.04600
Cu10       Cu  0.15973529  0.26401383  0.49969302     1.04300
C11         C  0.14858280  0.20469733  0.45289492     0.93600
C12         C  0.10713179  0.29649333  0.04480040     0.92800
C13         C  0.10885991  0.29382157  0.45093649     0.84900
C14         C  0.14335346  0.20577652  0.04784813     0.91200
O15         O  0.04255629  0.02291446  0.46763754    -0.72600
O16         O  0.01618125  0.45078834  0.03341697    -0.73600
O17         O  0.01368375  0.44672368  0.46508911    -0.62200
O18         O  0.04236062  0.02377322  0.03520038    -0.70600
O19         O  0.23751893  0.04835640  0.03498430    -0.70100
O20         O  0.20629505  0.47666579  0.46400311    -0.61400
O21         O  0.21027275  0.47438350  0.03288496    -0.73900
O22         O  0.23411077  0.05217302  0.46752737    -0.72700
Cu23       Cu  0.03057906  0.98641537  0.00007430     1.04600
Cu24       Cu  0.22145809  0.01325700  0.99981620     1.04300
C25         C  0.26720181  0.04983359  0.45449692     0.93600
C26         C  0.23805175  0.45453183  0.04574381     0.92800
C27         C  0.23344464  0.45732404  0.45088189     0.84900
C28         C  0.27085743  0.04447417  0.04853082     0.91200
C29         C  0.21858093  0.12085773  0.25026779     0.30400
C30         C  0.04841782  0.12399009  0.25127515     0.30400
C31         C  0.23890509  0.10151458  0.22265487    -0.05800
C32         C  0.23666780  0.16271470  0.25045705    -0.06600
C33         C  0.23899765  0.10074004  0.27830229    -0.06500
C34         C  0.02863777  0.10322645  0.22361959    -0.05800
C35         C  0.02729596  0.16449173  0.25166339    -0.06600
C36         C  0.03053907  0.10187222  0.27882686    -0.06500
C37         C  0.04072381  0.08794034  0.19599913    -0.31900
N38         N  0.26133928  0.07938472  0.17784435     0.14600
C39         C  0.22833788  0.08637814  0.19408508    -0.31900
H40         H  0.19883455  0.08262244  0.18519632     0.16600
C41         C  0.03696542  0.20441830  0.25079413    -0.30900
N42         N  0.25322017  0.22651106  0.24960488     0.13300
C43         C  0.22255710  0.20106619  0.24960480    -0.30800
C44         C  0.04439022  0.08598331  0.30625185    -0.31100
N45         N  0.26114660  0.07733412  0.32362752     0.13900
H46         H  0.07472019  0.08461270  0.31355751     0.16500
C47         C  0.22827672  0.08497198  0.30652777    -0.31100
H48         H  0.19889531  0.08179961  0.31490055     0.16500
H49         H  0.19212035  0.20970428  0.24889674     0.16500
H50         H  0.07048440  0.08550609  0.18866348     0.16600
H51         H  0.06623763  0.21626395  0.24987187     0.16500
C52         C  0.03472244  0.37454555  0.24869701     0.30400
C53         C  0.20512081  0.37088396  0.24834305     0.30400
C54         C  0.01348559  0.39507316  0.22119262    -0.05800
C55         C  0.01686970  0.33243257  0.24831973    -0.06600
C56         C  0.01488189  0.39345876  0.27685134    -0.06500
C57         C  0.22385098  0.39307488  0.22119498    -0.05800
C58         C  0.22627847  0.33036158  0.24822759    -0.06600
C59         C  0.22410629  0.39156401  0.27638880    -0.06500
C60         C  0.21078920  0.40944552  0.19369317    -0.31900
N61         N  0.24194769  0.41968334  0.17643162     0.14600
C62         C  0.02323780  0.41269480  0.19338524    -0.31900
H63         H  0.05249555  0.41678551  0.18475216     0.16600
C64         C  0.21666987  0.29042773  0.24829373    -0.30900
N65         N  0.25033117  0.26849731  0.24879668     0.13300
C66         C  0.03107781  0.29401082  0.24878901    -0.30800
C67         C  0.21102565  0.40746564  0.30348489    -0.31100
N68         N  0.24213225  0.41642752  0.32193282     0.13900
H69         H  0.18089798  0.41060654  0.30988994     0.16500
C70         C  0.02572463  0.40983694  0.30501572    -0.31100
H71         H  0.05531341  0.41440798  0.31342625     0.16500
H72         H  0.06154150  0.28542906  0.24900302     0.16500
H73         H  0.18071867  0.41146279  0.18609821     0.16600
H74         H  0.18738155  0.27853516  0.24823766     0.16500
C75         C  0.07996806  0.37470448  0.24832605     0.30400
C76         C  0.15977503  0.37089161  0.24806399     0.30400
C77         C  0.09787867  0.35428100  0.22031228    -0.05800
C78         C  0.10127058  0.41502550  0.24877160    -0.06600
C79         C  0.09944252  0.35237967  0.27550335    -0.06500
C80         C  0.13845500  0.35225450  0.21990004    -0.05800
C81         C  0.14182521  0.41284342  0.24854291    -0.06600
C82         C  0.13995462  0.35048951  0.27578540    -0.06500
C83         C  0.14806916  0.33871239  0.19086693    -0.31900
N84         N  0.11459260  0.33370016  0.17377468     0.14600
C85         C  0.08394706  0.34170287  0.19202651    -0.31900
H86         H  0.05372869  0.34087197  0.18437575     0.16600
C87         C  0.15603577  0.45112294  0.24873801    -0.30900
N88         N  0.12543237  0.47665098  0.24916618     0.13300
C89         C  0.09175198  0.45490029  0.24917459    -0.30800
C90         C  0.15102550  0.33478278  0.30434917    -0.31100
N91         N  0.11832199  0.32767342  0.32102238     0.13900
H92         H  0.18063062  0.33105345  0.31303545     0.16500
C93         C  0.08686395  0.33701048  0.30304922    -0.31100
H94         H  0.05691559  0.33511431  0.31036989     0.16500
H95         H  0.06241264  0.46692543  0.24942422     0.16500
H96         H  0.17728593  0.33462173  0.18240716     0.16600
H97         H  0.18646817  0.45966748  0.24860301     0.16500
C98         C  0.09367829  0.12409323  0.25101522     0.30400
C99         C  0.17338717  0.12078285  0.25030183     0.30400
C100        C  0.11508536  0.14330600  0.27886911    -0.05800
C101        C  0.11182938  0.08221833  0.25067313    -0.06600
C102        C  0.11304792  0.14425925  0.22301649    -0.06500
C103        C  0.15559191  0.14168566  0.27819446    -0.05800
C104        C  0.15236656  0.08026178  0.25027494    -0.06600
C105        C  0.15355884  0.14253474  0.22293603    -0.06500
C106        C  0.16972567  0.15637313  0.30583257    -0.31900
N107        N  0.13923309  0.16495683  0.32407323     0.14600
C108        C  0.10563362  0.15829984  0.30751827    -0.31900
H109        H  0.07646736  0.16221399  0.31620954     0.16600
C110        C  0.16210058  0.04038266  0.24959168    -0.30900
N111        N  0.12851385  0.01845452  0.24962250     0.13300
C112        C  0.09780895  0.04386520  0.25030222    -0.30800
C113        C  0.16558918  0.15829816  0.19531896    -0.31100
N114        N  0.13373209  0.16778538  0.17769618     0.13900
H115        H  0.19534475  0.16077592  0.18795184     0.16500
C116        C  0.10141892  0.16056286  0.19482755    -0.31100
H117        H  0.07162292  0.16523881  0.18695697     0.16500
H118        H  0.06743605  0.03521979  0.25041459     0.16500
H119        H  0.20003362  0.15829499  0.31313724     0.16600
H120        H  0.19144198  0.02850114  0.24899967     0.16500
C121        C  0.00090108  0.40774026  0.40823466    -0.19900
C122        C  0.22910869  0.44357235  0.41818649    -0.06500
C123        C  0.20926907  0.46609829  0.39481432     0.14400
C124        C  0.21499256  0.45728517  0.36338783    -0.20000
C125        C  0.23932522  0.42616065  0.35439283    -0.06500
C126        C  0.00661906  0.40035224  0.37680385     0.14300
C127        C  0.02893616  0.36429258  0.36809632    -0.23300
H128        H  0.01527493  0.38906532  0.42542430     0.15600
H129        H  0.20035848  0.47476925  0.34556955     0.15700
C130        C  0.18238154  0.49974118  0.40248148    -0.23300
H131        H  0.03673132  0.34600819  0.38861330     0.05900
H132        H  0.05628434  0.37350507  0.35698983     0.09100
H133        H  0.01098700  0.34585221  0.35223488     0.09100
H134        H  0.19857180  0.52283502  0.41528509     0.09100
H135        H  0.15796145  0.48861067  0.41664269     0.09100
H136        H  0.16945894  0.51379464  0.38139363     0.05900
C137        C  0.21635930  0.46681281  0.09933195    -0.19900
C138        C  0.23454381  0.44108127  0.07856703    -0.06500
C139        C  0.00236746  0.40754461  0.09163141     0.14400
C140        C  0.00647873  0.40344433  0.12386995    -0.20000
C141        C  0.24012653  0.42822759  0.14363739    -0.06500
C142        C  0.21869482  0.46068277  0.13153636     0.14300
C143        C  0.19927999  0.48955513  0.15261268    -0.23300
H144        H  0.20147264  0.49289236  0.09039849     0.15600
H145        H  0.02396323  0.37939957  0.13335678     0.15700
C146        C  0.02263350  0.37777792  0.07191937    -0.23300
H147        H  0.18644122  0.51495859  0.13959180     0.05900
H148        H  0.22101084  0.50117449  0.16951410     0.09100
H149        H  0.17528645  0.47492011  0.16517857     0.09100
H150        H  0.05468957  0.38173532  0.07439658     0.09100
H151        H  0.01417657  0.38021743  0.04719965     0.09100
H152        H  0.01472469  0.34750982  0.07958454     0.05900
C153        C  0.04029803  0.03205721  0.40200563    -0.19900
C154        C  0.27024859  0.06184359  0.42153628    -0.06500
C155        C  0.25060476  0.09498030  0.40863360     0.14400
C156        C  0.24687282  0.09876837  0.37629555    -0.20000
C157        C  0.26299653  0.07063991  0.35650302    -0.06500
C158        C  0.03859488  0.03736286  0.36975547     0.14300
C159        C  0.05954370  0.00863306  0.34946979    -0.23300
H160        H  0.05606790  0.00680189  0.41149226     0.15600
H161        H  0.23199514  0.12422825  0.36627481     0.15700
C162        C  0.23479289  0.12695740  0.42878666    -0.23300
H163        H  0.07296324  0.98404637  0.36310698     0.05900
H164        H  0.08335240  0.02375270  0.33704121     0.09100
H165        H  0.03866248  0.99572646  0.33249028     0.09100
H166        H  0.25823784  0.13768898  0.44464103     0.09100
H167        H  0.20993943  0.11573081  0.44236696     0.09100
H168        H  0.22441225  0.15251846  0.41477557     0.05900
C169        C  0.25224608  0.08877256  0.09113825    -0.19900
C170        C  0.27499507  0.05700494  0.08133460    -0.06500
C171        C  0.03998807  0.03220072  0.10393431     0.14400
C172        C  0.03489029  0.03969599  0.13561470    -0.20000
C173        C  0.26405798  0.07112552  0.14525751    -0.06500
C174        C  0.24735469  0.09660770  0.12259119     0.14300
C175        C  0.22538851  0.13295339  0.13128605    -0.23300
H176        H  0.23756638  0.10725616  0.07400299     0.15600
H177        H  0.05039699  0.02204296  0.15279026     0.15700
C178        C  0.06777518  0.99977023  0.09523163    -0.23300
H179        H  0.21818073  0.15155167  0.11078925     0.05900
H180        H  0.24336675  0.15103116  0.14740926     0.09100
H181        H  0.19761888  0.12412541  0.14194884     0.09100
H182        H  0.09150584  0.01219442  0.08097828     0.09100
H183        H  0.05209923  0.97653127  0.08222238     0.09100
H184        H  0.08161744  0.98546686  0.11582829     0.05900
C185        C  0.12613709  0.33838713  0.40751586    -0.19900
C186        C  0.10452344  0.30594252  0.41786537    -0.06500
C187        C  0.08615980  0.28126523  0.39544473     0.14400
C188        C  0.09261808  0.28806045  0.36382019    -0.20000
C189        C  0.11599123  0.31936114  0.35371908    -0.06500
C190        C  0.13117227  0.34583160  0.37592722     0.14300
C191        C  0.15173387  0.38271016  0.36645704    -0.23300
H192        H  0.13986172  0.35766874  0.42431542     0.15600
H193        H  0.07903365  0.26914073  0.34671761     0.15700
C194        C  0.05967154  0.24772539  0.40429465    -0.23300
H195        H  0.15852220  0.40171885  0.38653542     0.05900
H196        H  0.13308627  0.40000937  0.35000713     0.09100
H197        H  0.17952872  0.37427530  0.35582943     0.09100
H198        H  0.03512103  0.25937811  0.41787537     0.05700
H199        H  0.07599194  0.22534349  0.41803683     0.09100
H200        H  0.04701877  0.23264656  0.38377896     0.05900
C201        C  0.12552611  0.34172105  0.08732412    -0.19900
C202        C  0.10167573  0.31082567  0.07686982    -0.06500
C203        C  0.07960545  0.28938464  0.09890198     0.14400
C204        C  0.08466646  0.29739372  0.13054748    -0.20000
C205        C  0.11086053  0.32634186  0.14099770    -0.06500
C206        C  0.12966330  0.35021429  0.11884198     0.14300
C207        C  0.15356904  0.38522824  0.12803679    -0.23300
H208        H  0.14196834  0.35874320  0.07070630     0.15600
H209        H  0.06869686  0.28036789  0.14744145     0.15700
C210        C  0.05161421  0.25713439  0.08966545    -0.23300
H211        H  0.18041675  0.37476579  0.13999561     0.05900
H212        H  0.13633920  0.40480017  0.14307146     0.09100
H213        H  0.16251218  0.40283408  0.10766089     0.09100
H214        H  0.06751145  0.23274491  0.07856058     0.09100
H215        H  0.02913423  0.26935258  0.07346009     0.09100
H216        H  0.03631876  0.24445581  0.10984315     0.05900
C217        C  0.13201973  0.15777211  0.41087133    -0.19900
C218        C  0.15349577  0.19078981  0.42053268    -0.06500
C219        C  0.17247672  0.21395683  0.39769283     0.14400
C220        C  0.16706723  0.20498389  0.36619575    -0.20000
C221        C  0.14321937  0.17358763  0.35664834    -0.06500
C222        C  0.12719915  0.14864044  0.37947613     0.14300
C223        C  0.10525701  0.11200917  0.37099728    -0.23300
H224        H  0.11780314  0.13958606  0.42804024     0.15600
H225        H  0.18091320  0.22302935  0.34875026     0.15700
C226        C  0.19786680  0.24861433  0.40604444    -0.23300
H227        H  0.09801069  0.09406866  0.39165129     0.05900
H228        H  0.12312422  0.09342577  0.35566405     0.09100
H229        H  0.07748552  0.12063701  0.35944946     0.09100
H230        H  0.22160634  0.23845996  0.42188890     0.09100
H231        H  0.18044308  0.27158289  0.41744696     0.09100
H232        H  0.21140348  0.26234813  0.38546280     0.05900
C233        C  0.16077015  0.20747991  0.13533794    -0.19900
C234        C  0.13533578  0.17763515  0.14512100    -0.06500
C235        C  0.11650025  0.15429173  0.12239409     0.14400
C236        C  0.12155763  0.16265314  0.09090732    -0.20000
C237        C  0.14615426  0.19308867  0.08096689    -0.06500
C238        C  0.16666041  0.21538257  0.10375587     0.14300
C239        C  0.19477247  0.24765642  0.09530864    -0.23300
H240        H  0.17640794  0.22438386  0.15263628     0.15600
H241        H  0.10570012  0.14551945  0.07385244     0.15700
C242        C  0.09210126  0.11946667  0.13094795    -0.23300
H243        H  0.20881619  0.26112609  0.11596850     0.05900
H244        H  0.17933465  0.27146515  0.08235869     0.09100
H245        H  0.21818035  0.23505998  0.08102845     0.09100
H246        H  0.06574769  0.12981877  0.14284751     0.09100
H247        H  0.10945640  0.09893291  0.14583821     0.09100
H248        H  0.08222334  0.10298014  0.11027119     0.05900
O249        O  0.11327145  0.20005229  0.96579027    -0.72600
O250        O  0.08214188  0.27383371  0.53226339    -0.73600
O251        O  0.08319764  0.27507506  0.96349003    -0.62200
O252        O  0.11430462  0.19977815  0.53283849    -0.70600
O253        O  0.17320739  0.22664494  0.53511220    -0.70100
O254        O  0.14310128  0.29973197  0.96552335    -0.61400
O255        O  0.14105223  0.30077393  0.53246884    -0.73900
O256        O  0.17314301  0.22474732  0.96667639    -0.72700
Cu257      Cu  0.09666072  0.23581200  0.49860291     1.04600
Cu258      Cu  0.15904779  0.26328554  0.00014332     1.04300
C259        C  0.14654819  0.20431245  0.95321227     0.93600
C260        C  0.10815806  0.29533853  0.54538649     0.92800
C261        C  0.11046116  0.29516729  0.95119101     0.84900
C262        C  0.14654312  0.20555371  0.54741281     0.91200
O263        O  0.04207334  0.02620347  0.96652092    -0.72600
O264        O  0.01403300  0.44237406  0.53274332    -0.73600
O265        O  0.01585821  0.45316054  0.96576592    -0.62200
O266        O  0.04174044  0.01886225  0.53596875    -0.70600
O267        O  0.23542473  0.04736134  0.53524135    -0.70100
O268        O  0.21000290  0.47842336  0.96385618    -0.61400
O269        O  0.20733499  0.47278421  0.53312479    -0.73900
O270        O  0.23685156  0.05267369  0.96740239    -0.72700
Cu271      Cu  0.03036129  0.98226316  0.50026771     1.04600
Cu272      Cu  0.21940844  0.01238808  0.49992141     1.04300
C273        C  0.27002165  0.05020496  0.95450252     0.93600
C274        C  0.23478124  0.45211747  0.54566993     0.92800
C275        C  0.23767304  0.45970224  0.95086637     0.84900
C276        C  0.26876088  0.04365696  0.54884376     0.91200
C277        C  0.21727113  0.12289923  0.75066340     0.30400
C278        C  0.04704181  0.12525224  0.75036177     0.30400
C279        C  0.23751709  0.10317347  0.72309279    -0.05800
C280        C  0.23552216  0.16475702  0.75063378    -0.06600
C281        C  0.23773682  0.10297857  0.77884191    -0.06500
C282        C  0.02732238  0.10491503  0.72249905    -0.05800
C283        C  0.02624160  0.16581852  0.75093277    -0.06600
C284        C  0.02883131  0.10295455  0.77767364    -0.06500
C285        C  0.03951657  0.08922350  0.69508554    -0.31900
N286        N  0.25974261  0.07994575  0.67841675     0.14600
C287        C  0.22684361  0.08718852  0.69478883    -0.31900
H288        H  0.19732522  0.08283464  0.68627524     0.16600
C289        C  0.03646180  0.20554992  0.75060050    -0.30900
N290        N  0.25278554  0.22845516  0.74997339     0.13300
C291        C  0.22179667  0.20331617  0.74988911    -0.30800
C292        C  0.04226450  0.08658819  0.80505700    -0.31100
N293        N  0.26044226  0.07978052  0.82416038     0.13900
H294        H  0.07240601  0.08503126  0.81263494     0.16500
C295        C  0.22734981  0.08752814  0.80730799    -0.31100
H296        H  0.19800013  0.08442270  0.81595629     0.16500
H297        H  0.19146786  0.21226226  0.74923910     0.16500
H298        H  0.06941540  0.08629604  0.68791681     0.16600
H299        H  0.06591191  0.21702611  0.75001196     0.16500
C300        C  0.03647165  0.37571186  0.74963330     0.30400
C301        C  0.20683822  0.37339035  0.74880192     0.30400
C302        C  0.01537191  0.39641394  0.72212735    -0.05800
C303        C  0.01828719  0.33375383  0.74919428    -0.06600
C304        C  0.01665286  0.39459872  0.77788497    -0.06500
C305        C  0.22542239  0.39513764  0.72146605    -0.05800
C306        C  0.22752083  0.33266338  0.74875536    -0.06600
C307        C  0.22633703  0.39416216  0.77660487    -0.06500
C308        C  0.21210440  0.41120486  0.69399272    -0.31900
N309        N  0.24312125  0.42058156  0.67635275     0.14600
C310        C  0.02516352  0.41279806  0.69385888    -0.31900
H311        H  0.05431398  0.41602395  0.68492106     0.16600
C312        C  0.21727083  0.29290758  0.74899172    -0.30900
N313        N  0.25056772  0.27048525  0.74928423     0.13300
C314        C  0.03199217  0.29515629  0.74958093    -0.30800
C315        C  0.21400750  0.41045996  0.80378355    -0.31100
N316        N  0.24561992  0.41939575  0.82173138     0.13900
H317        H  0.18403634  0.41372209  0.81066592     0.16500
C318        C  0.02748249  0.41045028  0.80626316    -0.31100
H319        H  0.05707106  0.41513621  0.81460691     0.16500
H320        H  0.06234687  0.28621051  0.74986168     0.16500
H321        H  0.18199391  0.41343831  0.68658931     0.16600
H322        H  0.18783114  0.28146017  0.74913501     0.16500
C323        C  0.08176096  0.37595894  0.74907020     0.30400
C324        C  0.16158954  0.37330908  0.74853488     0.30400
C325        C  0.09981462  0.35573005  0.72093556    -0.05800
C326        C  0.10257605  0.41656135  0.74947498    -0.06600
C327        C  0.10172209  0.35396038  0.77618518    -0.06500
C328        C  0.14041499  0.35437690  0.72040156    -0.05800
C329        C  0.14315734  0.41497370  0.74911717    -0.06600
C330        C  0.14226097  0.35270268  0.77626799    -0.06500
C331        C  0.15018136  0.34054583  0.69144946    -0.31900
N332        N  0.11676781  0.33451076  0.67451359     0.14600
C333        C  0.08603256  0.34228762  0.69278947    -0.31900
H334        H  0.05580661  0.34060820  0.68527690     0.16600
C335        C  0.15682727  0.45341444  0.74940323    -0.30900
N336        N  0.12584986  0.47848770  0.74999573     0.13300
C337        C  0.09248157  0.45627938  0.75006927    -0.30800
C338        C  0.15396292  0.33773830  0.80484901    -0.31100
N339        N  0.12162537  0.33059757  0.82184464     0.13900
H340        H  0.18382750  0.33426797  0.81324689     0.16500
C341        C  0.08977383  0.33909449  0.80403699    -0.31100
H342        H  0.05992547  0.33696972  0.81169118     0.16500
H343        H  0.06302499  0.46787712  0.75047201     0.16500
H344        H  0.17943068  0.33688222  0.68288770     0.16600
H345        H  0.18717129  0.46236350  0.74914692     0.16500
C346        C  0.09226772  0.12550917  0.75038316     0.30400
C347        C  0.17203376  0.12280428  0.75044555     0.30400
C348        C  0.11317516  0.14512767  0.77833974    -0.05800
C349        C  0.11067094  0.08382121  0.75050843    -0.06600
C350        C  0.11190012  0.14543433  0.72234505    -0.06500
C351        C  0.15371967  0.14388996  0.77797725    -0.05800
C352        C  0.15123452  0.08218506  0.75058892    -0.06600
C353        C  0.15244573  0.14409448  0.72274536    -0.06500
C354        C  0.16740458  0.15809099  0.80587336    -0.31900
N355        N  0.13664421  0.16592506  0.82404945     0.14600
C356        C  0.10327422  0.15930267  0.80716816    -0.31900
H357        H  0.07396111  0.16268631  0.81570811     0.16600
C358        C  0.16131575  0.04241761  0.75064738    -0.30900
N359        N  0.12790506  0.02025156  0.75057836     0.13300
C360        C  0.09694298  0.04538488  0.75047898    -0.30800
C361        C  0.16478720  0.15939388  0.69512107    -0.31100
N362        N  0.13326896  0.16815172  0.67695230     0.13900
H363        H  0.19496520  0.16203032  0.68800892     0.16500
C364        C  0.10065279  0.16088086  0.69371379    -0.31100
H365        H  0.07103368  0.16495004  0.68533159     0.16500
H366        H  0.06663992  0.03650002  0.75028710     0.16500
H367        H  0.19757596  0.16003934  0.81339375     0.16600
H368        H  0.19072657  0.03078434  0.75065059     0.16500
C369        C  0.00447729  0.41207317  0.90980357    -0.19900
C370        C  0.23399047  0.44638004  0.91805404    -0.06500
C371        C  0.21349943  0.46861865  0.89486779     0.14400
C372        C  0.21907091  0.46010512  0.86340017    -0.20000
C373        C  0.24369122  0.42938272  0.85416647    -0.06500
C374        C  0.01000277  0.40348559  0.87850735     0.14300
C375        C  0.03398085  0.36817194  0.87060506    -0.23300
H376        H  0.02010366  0.39495933  0.92732507     0.15600
H377        H  0.20386552  0.47732497  0.84573452     0.15700
C378        C  0.18584086  0.50151000  0.90275578    -0.23300
H379        H  0.04275365  0.35125696  0.89159551     0.05900
H380        H  0.06086755  0.37798930  0.85909116     0.09100
H381        H  0.01678368  0.34815456  0.85543945     0.09100
H382        H  0.20144566  0.52484771  0.91571035     0.09100
H383        H  0.16170076  0.48962499  0.91684025     0.09100
H384        H  0.17259447  0.51549849  0.88177371     0.05900
C385        C  0.21582765  0.46639454  0.59942058    -0.19900
C386        C  0.23189226  0.43929615  0.57860737    -0.06500
C387        C  0.00056048  0.40211311  0.59244811     0.14400
C388        C  0.00540586  0.39928197  0.62474611    -0.20000
C389        C  0.24058060  0.42837563  0.64356260    -0.06500
C390        C  0.21961152  0.46113106  0.63159560     0.14300
C391        C  0.20205165  0.49103841  0.65282752    -0.23300
H392        H  0.20149567  0.49277608  0.59050008     0.15600
H393        H  0.02176767  0.37479549  0.63481205     0.15700
C394        C  0.01786598  0.37055288  0.57263528    -0.23300
H395        H  0.18994158  0.51684200  0.63987786     0.05900
H396        H  0.22469016  0.50179315  0.66936494     0.09100
H397        H  0.17788881  0.47755518  0.66591844     0.09100
H398        H  0.04198551  0.38272793  0.55873168     0.09100
H399        H  0.99488648  0.35811621  0.55716506     0.09100
H400        H  0.02992615  0.34597538  0.58692062     0.05900
C401        C  0.03710174  0.03245400  0.90044778    -0.19900
C402        C  0.27338466  0.06342132  0.92182758    -0.06500
C403        C  0.25315260  0.09663476  0.90951783     0.14400
C404        C  0.24761456  0.10039242  0.87733098    -0.20000
C405        C  0.26311574  0.07258489  0.85696907    -0.06500
C406        C  0.03498336  0.03734333  0.86815825     0.14300
C407        C  0.05485785  0.00795172  0.84777992    -0.23300
H408        H  0.05238263  0.00695624  0.91001375     0.15600
H409        H  0.23219869  0.12589304  0.86794179     0.15700
C410        C  0.23779260  0.12888799  0.92965471    -0.23300
H411        H  0.06768450  0.98301783  0.86136215     0.05900
H412        H  0.07887411  0.02236930  0.83511480     0.09100
H413        H  0.03341406  0.99569137  0.83091653     0.09100
H414        H  0.24688231  0.12516802  0.95418378     0.09100
H415        H  0.20547025  0.12922812  0.92808231     0.09100
H416        H  0.24921396  0.15787483  0.92169899     0.05900
C417        C  0.24883385  0.08719214  0.59154789    -0.19900
C418        C  0.27274006  0.05634946  0.58171750    -0.06500
C419        C  0.03921296  0.03020900  0.60445309     0.14400
C420        C  0.03416782  0.03930971  0.63583846    -0.20000
C421        C  0.26229236  0.07108893  0.64581106    -0.06500
C422        C  0.24408727  0.09527888  0.62298222     0.14300
C423        C  0.22069301  0.13071396  0.63140016    -0.23300
H424        H  0.23315210  0.10482856  0.57441459     0.15600
H425        H  0.04956284  0.02235615  0.65353746     0.15700
C426        C  0.06650443  0.99692517  0.59669202    -0.23300
H427        H  0.21223126  0.14832162  0.61069455     0.05900
H428        H  0.23821376  0.15005860  0.64686982     0.09100
H429        H  0.19358661  0.12089846  0.64258799     0.09100
H430        H  0.09048414  0.00830169  0.58219115     0.09100
H431        H  0.05048413  0.97341198  0.58422487     0.09100
H432        H  0.08001854  0.98327710  0.61769533     0.05900
C433        C  0.13072233  0.33927046  0.90838414    -0.19900
C434        C  0.10738201  0.30780419  0.91827108    -0.06500
C435        C  0.08829454  0.28417041  0.89558289     0.14400
C436        C  0.09530975  0.29110905  0.86414732    -0.20000
C437        C  0.11973655  0.32171675  0.85441990    -0.06500
C438        C  0.13628933  0.34701353  0.87690528     0.14300
C439        C  0.15861676  0.38307841  0.86794250    -0.23300
H440        H  0.14519970  0.35762973  0.92546617     0.15600
H441        H  0.08107694  0.27299882  0.84681816     0.15700
C442        C  0.06029354  0.25166338  0.90389415    -0.23300
H443        H  0.16663351  0.40105555  0.88834863     0.05900
H444        H  0.14055366  0.40180424  0.85208415     0.09100
H445        H  0.18589731  0.37382403  0.85685551     0.09100
H446        H  0.03592547  0.26417334  0.91723613     0.05700
H447        H  0.07545184  0.22846427  0.91764326     0.09100
H448        H  0.04742101  0.23730983  0.88314597     0.05900
C449        C  0.12531883  0.34190905  0.58769315    -0.19900
C450        C  0.10339512  0.30925075  0.57779034    -0.06500
C451        C  0.08395614  0.28623431  0.60048446     0.14400
C452        C  0.08929964  0.29495433  0.63202362    -0.20000
C453        C  0.11318696  0.32615030  0.64183664    -0.06500
C454        C  0.12975508  0.35098022  0.61917006     0.14300
C455        C  0.15175500  0.38743113  0.62793510    -0.23300
H456        H  0.14002623  0.35994006  0.57067544     0.15600
H457        H  0.07513995  0.27695859  0.64933859     0.15700
C458        C  0.05792284  0.25204211  0.59201315    -0.23300
H459        H  0.17907304  0.37851113  0.63997191     0.05900
H460        H  0.13370937  0.40621351  0.64297635     0.09100
H461        H  0.15964076  0.40521556  0.60736216     0.09100
H462        H  0.07477437  0.22910517  0.58004017     0.09100
H463        H  0.03369080  0.26266354  0.57677692     0.09100
H464        H  0.04486486  0.23793659  0.61262961     0.05900
C465        C  0.12840826  0.15829446  0.91084366    -0.19900
C466        C  0.15115063  0.19034710  0.92079826    -0.06500
C467        C  0.17114823  0.21288022  0.89815401     0.14400
C468        C  0.16528122  0.20460319  0.86658688    -0.20000
C469        C  0.14042475  0.17415075  0.85672761    -0.06500
C470        C  0.12358796  0.14946680  0.87936549     0.14300
C471        C  0.10115362  0.11321575  0.87064843    -0.23300
H472        H  0.11347247  0.14049401  0.92785173     0.15600
H473        H  0.17977373  0.22236466  0.84931421     0.15700
C474        C  0.19801904  0.24630423  0.90674258    -0.23300
H475        H  0.09335369  0.09538253  0.89122306     0.05900
H476        H  0.11898478  0.09434263  0.85549414     0.09100
H477        H  0.07368662  0.12221247  0.85883137     0.09100
H478        H  0.22154076  0.23491010  0.92230068     0.09100
H479        H  0.18166759  0.26980845  0.91848220     0.09100
H480        H  0.21187164  0.25983418  0.88621693     0.05900
C481        C  0.16064900  0.20827987  0.63506037    -0.19900
C482        C  0.13564836  0.17780521  0.64438616    -0.06500
C483        C  0.11857778  0.15353558  0.62138212     0.14400
C484        C  0.12534495  0.16137137  0.59001942    -0.20000
C485        C  0.14926428  0.19267372  0.58049885    -0.06500
C486        C  0.16780739  0.21600251  0.60364446     0.14300
C487        C  0.19517000  0.24914788  0.59573059    -0.23300
H488        H  0.17493344  0.22591144  0.65265054     0.15600
H489        H  0.11090115  0.14342645  0.57266470     0.15700
C490        C  0.09405700  0.11854272  0.62959331    -0.23300
H491        H  0.20797653  0.26319959  0.61664526     0.05900
H492        H  0.17952963  0.27236208  0.58229679     0.09100
H493        H  0.21944282  0.23722373  0.58204861     0.09100
H494        H  0.06705265  0.12882470  0.64063987     0.09100
H495        H  0.11082853  0.09846059  0.64525454     0.09100
H496        H  0.08521959  0.10152174  0.60885202     0.05900
O497        O  0.11455645  0.69898137  0.46557734    -0.72600
O498        O  0.07979414  0.77540171  0.03138144    -0.73600
O499        O  0.08236622  0.77292835  0.46376412    -0.62200
O500        O  0.11181902  0.70131834  0.03365901    -0.70600
O501        O  0.17122085  0.72708889  0.03544277    -0.70100
O502        O  0.14187505  0.79857178  0.46468642    -0.61400
O503        O  0.13923356  0.80117775  0.03265336    -0.73900
O504        O  0.17406822  0.72456340  0.46633945    -0.72700
Cu505      Cu  0.09483452  0.73679998  0.99860323     1.04600
Cu506      Cu  0.15949645  0.76299578  0.49961592     1.04300
C507        C  0.14770855  0.70381587  0.45292566     0.93600
C508        C  0.10580915  0.79643510  0.04488344     0.92800
C509        C  0.10899201  0.79322783  0.45081596     0.84900
C510        C  0.14429995  0.70671863  0.04805799     0.91200
O511        O  0.04129633  0.52227721  0.46764110    -0.72600
O512        O  0.01502825  0.94788747  0.03306353    -0.73600
O513        O  0.01478063  0.94732304  0.46486914    -0.62200
O514        O  0.04192620  0.52716242  0.03508686    -0.70600
O515        O  0.23735113  0.55023141  0.03487239    -0.70100
O516        O  0.20757370  0.97593876  0.46396951    -0.61400
O517        O  0.20987921  0.97267322  0.03279680    -0.73900
O518        O  0.23501937  0.55211805  0.46711341    -0.72700
Cu519      Cu  0.03083683  0.48952480  0.00030164     1.04600
Cu520      Cu  0.22146124  0.51508311  0.99975296     1.04300
C521        C  0.26823115  0.54901455  0.45431441     0.93600
C522        C  0.23739315  0.95246919  0.04563671     0.92800
C523        C  0.23514156  0.95736656  0.45074470     0.84900
C524        C  0.27080581  0.54663940  0.04827056     0.91200
C525        C  0.21867102  0.62073226  0.25043071     0.30400
C526        C  0.04840134  0.62406286  0.25128897     0.30400
C527        C  0.23893941  0.60159189  0.22270006    -0.05800
C528        C  0.23682166  0.66255403  0.25079643    -0.06600
C529        C  0.23914034  0.60038339  0.27836558    -0.06500
C530        C  0.02853459  0.60355824  0.22360936    -0.05800
C531        C  0.02732169  0.66455530  0.25185507    -0.06600
C532        C  0.03048148  0.60176131  0.27882102    -0.06500
C533        C  0.04047663  0.58873476  0.19584355    -0.31900
N534        N  0.26126568  0.58007228  0.17767945     0.14600
C535        C  0.22828697  0.58681075  0.19402446    -0.31900
H536        H  0.19883879  0.58313865  0.18518581     0.16600
C537        C  0.03704360  0.70444388  0.25091251    -0.30900
N538        N  0.25346619  0.72631416  0.24986992     0.13300
C539        C  0.22276982  0.70091649  0.24995804    -0.30800
C540        C  0.04421228  0.58561136  0.30625661    -0.31100
N541        N  0.26147818  0.57656737  0.32355009     0.13900
H542        H  0.07430942  0.58397379  0.31352709     0.16500
C543        C  0.22853627  0.58448132  0.30658637    -0.31100
H544        H  0.19917549  0.58141515  0.31506198     0.16500
H545        H  0.19234742  0.70959217  0.24924175     0.16500
H546        H  0.07024245  0.58644148  0.18833798     0.16600
H547        H  0.06629182  0.71623491  0.24983739     0.16500
C548        C  0.03507249  0.87436225  0.24853423     0.30400
C549        C  0.20540190  0.87063634  0.24831342     0.30400
C550        C  0.01379160  0.89503119  0.22108664    -0.05800
C551        C  0.01712339  0.83234292  0.24808154    -0.06600
C552        C  0.01537235  0.89314411  0.27675976    -0.06500
C553        C  0.22401189  0.89270231  0.22110661    -0.05800
C554        C  0.22657159  0.83013385  0.24824615    -0.06600
C555        C  0.22446628  0.89142674  0.27628674    -0.06500
C556        C  0.21077447  0.90872269  0.19357776    -0.31900
N557        N  0.24180220  0.91878271  0.17617055     0.14600
C558        C  0.02340155  0.91234210  0.19311626    -0.31900
H559        H  0.05251620  0.91594720  0.18421124     0.16600
C560        C  0.21696447  0.79021894  0.24844426    -0.30900
N561        N  0.25061635  0.76829148  0.24892368     0.13300
C562        C  0.03127472  0.79393011  0.24868077    -0.30800
C563        C  0.21156749  0.90740559  0.30341705    -0.31100
N564        N  0.24281224  0.91656344  0.32167585     0.13900
H565        H  0.18148620  0.91043248  0.30998621     0.16500
C566        C  0.02640586  0.90921552  0.30497268    -0.31100
H567        H  0.05603491  0.91357213  0.31340409     0.16500
H568        H  0.06170731  0.78530332  0.24900674     0.16500
H569        H  0.18061327  0.91065333  0.18604008     0.16600
H570        H  0.18765250  0.77832621  0.24850531     0.16500
C571        C  0.08030557  0.87447003  0.24823265     0.30400
C572        C  0.16008348  0.87068044  0.24796470     0.30400
C573        C  0.09816838  0.85388886  0.22031098    -0.05800
C574        C  0.10158890  0.91481705  0.24855244    -0.06600
C575        C  0.09980338  0.85225623  0.27547356    -0.06500
C576        C  0.13874162  0.85187009  0.21983662    -0.05800
C577        C  0.14213770  0.91266361  0.24834038    -0.06600
C578        C  0.14030684  0.85040575  0.27573608    -0.06500
C579        C  0.14819761  0.83803674  0.19082496    -0.31900
N580        N  0.11460763  0.83269395  0.17393340     0.14600
C581        C  0.08407977  0.84092057  0.19220599    -0.31900
H582        H  0.05379805  0.84003793  0.18464024     0.16600
C583        C  0.15631151  0.95098852  0.24856754    -0.30900
N584        N  0.12567843  0.97650540  0.24901012     0.13300
C585        C  0.09203053  0.95469430  0.24898190    -0.30800
C586        C  0.15145698  0.83460641  0.30424080    -0.31100
N587        N  0.11879720  0.82743300  0.32094692     0.13900
H588        H  0.18107916  0.83075774  0.31282353     0.16500
C589        C  0.08729343  0.83673755  0.30299656    -0.31100
H590        H  0.05734240  0.83465627  0.31030693     0.16500
H591        H  0.06267684  0.96667822  0.24928542     0.16500
H592        H  0.17736909  0.83413764  0.18214814     0.16600
H593        H  0.18673074  0.95956092  0.24850077     0.16500
C594        C  0.09368175  0.62418271  0.25083557     0.30400
C595        C  0.17343980  0.62075722  0.25035716     0.30400
C596        C  0.11500591  0.64326475  0.27872059    -0.05800
C597        C  0.11178300  0.58232609  0.25044722    -0.06600
C598        C  0.11321890  0.64443490  0.22289704    -0.06500
C599        C  0.15551660  0.64153124  0.27822908    -0.05800
C600        C  0.15232717  0.58029927  0.25016542    -0.06600
C601        C  0.15376374  0.64270511  0.22299148    -0.06500
C602        C  0.16944474  0.65600815  0.30597765    -0.31900
N603        N  0.13878072  0.66470175  0.32401959     0.14600
C604        C  0.10533540  0.65828214  0.30725383    -0.31900
H605        H  0.07601582  0.66244020  0.31572685     0.16600
C606        C  0.16198955  0.54041307  0.24962817    -0.30900
N607        N  0.12834571  0.51857614  0.24961516     0.13300
C608        C  0.09768298  0.54402849  0.25012247    -0.30800
C609        C  0.16601707  0.65883165  0.19556935    -0.31100
N610        N  0.13433408  0.66845415  0.17782168     0.13900
H611        H  0.19591460  0.66145733  0.18836835     0.16500
C612        C  0.10184617  0.66094375  0.19469067    -0.31100
H613        H  0.07213223  0.66546417  0.18656960     0.16500
H614        H  0.06728516  0.53543607  0.25019938     0.16500
H615        H  0.19969042  0.65771922  0.31347452     0.16600
H616        H  0.19129175  0.52847647  0.24923227     0.16500
C617        C  0.00133028  0.90747187  0.40822945    -0.19900
C618        C  0.23091837  0.94366023  0.41803844    -0.06500
C619        C  0.21001533  0.96554361  0.39486116     0.14400
C620        C  0.21543806  0.95687304  0.36337056    -0.20000
C621        C  0.24033754  0.92633454  0.35414917    -0.06500
C622        C  0.00686940  0.89966830  0.37683409     0.14300
C623        C  0.02820134  0.86294537  0.36823374    -0.23300
H624        H  0.01520347  0.88859263  0.42553328     0.15600
H625        H  0.20003786  0.97390517  0.34570990     0.15700
C626        C  0.18218908  0.99827838  0.40279525    -0.23300
H627        H  0.03542695  0.84452995  0.38881036     0.05900
H628        H  0.05579123  0.87137854  0.35714179     0.09100
H629        H  0.00981773  0.84494552  0.35234867     0.09100
H630        H  0.19780822  0.02190026  0.41544119     0.09100
H631        H  0.15837011  0.98632980  0.41720009     0.09100
H632        H  0.16847869  0.01188630  0.38183906     0.05900
C633        C  0.21602478  0.96532970  0.09906423    -0.19900
C634        C  0.23355086  0.93906916  0.07836759    -0.06500
C635        C  0.99984892  0.90550257  0.09162857     0.14400
C636        C  0.00385142  0.90123281  0.12388168    -0.20000
C637        C  0.23967811  0.92683579  0.14336172    -0.06500
C638        C  0.21855979  0.95944894  0.13124719     0.14300
C639        C  0.19961985  0.98868233  0.15229380    -0.23300
H640        H  0.20156600  0.99161600  0.09009018     0.15600
H641        H  0.01993608  0.87629747  0.13352256     0.15700
C642        C  0.01742628  0.87472934  0.07124526    -0.23300
H643        H  0.18694113  0.01412859  0.13922999     0.05900
H644        H  0.22158008  0.00017254  0.16906218     0.09100
H645        H  0.17557568  0.97436849  0.16502924     0.09100
H646        H  0.04211607  0.88727879  0.05818111     0.09100
H647        H  0.99478988  0.86330579  0.05498207     0.09100
H648        H  0.02873869  0.84937331  0.08502697     0.05900
C649        C  0.03830429  0.53056284  0.40184247    -0.19900
C650        C  0.27208791  0.56152711  0.42149670    -0.06500
C651        C  0.25224695  0.59458917  0.40858295     0.14400
C652        C  0.24754973  0.59789242  0.37631186    -0.20000
C653        C  0.26357037  0.56981725  0.35643156    -0.06500
C654        C  0.03700299  0.53617042  0.36960507     0.14300
C655        C  0.05741342  0.50717776  0.34922084    -0.23300
H656        H  0.05344233  0.50490666  0.41128065     0.15600
H657        H  0.23237873  0.62328949  0.36647571     0.15700
C658        C  0.23634984  0.62711896  0.42815167    -0.23300
H659        H  0.07016649  0.48213663  0.36274250     0.05900
H660        H  0.08157951  0.52191860  0.33696399     0.09100
H661        H  0.03633220  0.49497504  0.33205957     0.09100
H662        H  0.24503832  0.62396412  0.45280100     0.09100
H663        H  0.20406638  0.62709964  0.42623063     0.09100
H664        H  0.24766688  0.65604450  0.41996849     0.05900
C665        C  0.25195464  0.59040415  0.09106720    -0.19900
C666        C  0.27500020  0.55899643  0.08105967    -0.06500
C667        C  0.03946922  0.53446218  0.10361005     0.14400
C668        C  0.03437078  0.54145602  0.13529886    -0.20000
C669        C  0.26394905  0.57220818  0.14503945    -0.06500
C670        C  0.24704610  0.59783084  0.12256269     0.14300
C671        C  0.22484955  0.63388748  0.13151037    -0.23300
H672        H  0.23705250  0.60893068  0.07404478     0.15600
H673        H  0.04999817  0.52366546  0.15233354     0.15700
C674        C  0.06764156  0.50249490  0.09466254    -0.23300
H675        H  0.21736189  0.65258344  0.11112485     0.05900
H676        H  0.24277810  0.65198027  0.14764471     0.09100
H677        H  0.19725048  0.62467832  0.14222859     0.09100
H678        H  0.09118214  0.51537066  0.08045530     0.09100
H679        H  0.05223278  0.47918529  0.08157041     0.09100
H680        H  0.08172917  0.48815768  0.11514379     0.05900
C681        C  0.12713143  0.83749071  0.40747732    -0.19900
C682        C  0.10490433  0.80544919  0.41775500    -0.06500
C683        C  0.08612447  0.78117244  0.39528694     0.14400
C684        C  0.09266048  0.78799119  0.36367778    -0.20000
C685        C  0.11652986  0.81894313  0.35362832    -0.06500
C686        C  0.13230842  0.84497502  0.37591610     0.14300
C687        C  0.15364687  0.88147637  0.36661029    -0.23300
H688        H  0.14123347  0.85645000  0.42433969     0.15600
H689        H  0.07868447  0.76938893  0.34652828     0.15700
C690        C  0.05903445  0.74810725  0.40407953    -0.23300
H691        H  0.16088576  0.90013880  0.38679992     0.05900
H692        H  0.13527441  0.89932013  0.35033806     0.09100
H693        H  0.18128827  0.87265436  0.35588934     0.09100
H694        H  0.03469549  0.76019922  0.41766681     0.05700
H695        H  0.07494471  0.72540673  0.41780719     0.09100
H696        H  0.04611129  0.73331013  0.38353475     0.05900
C697        C  0.12289208  0.84228871  0.08738488    -0.19900
C698        C  0.10037651  0.81030286  0.07709010    -0.06500
C699        C  0.07996394  0.78750280  0.09933779     0.14400
C700        C  0.08549986  0.79531340  0.13097391    -0.20000
C701        C  0.11060002  0.82533487  0.14119520    -0.06500
C702        C  0.12762874  0.85041015  0.11893925     0.14300
C703        C  0.15052288  0.88609642  0.12817784    -0.23300
H704        H  0.13805972  0.86028035  0.07064104     0.15600
H705        H  0.07073331  0.77743095  0.14799815     0.15700
C706        C  0.05288966  0.75439529  0.09027463    -0.23300
H707        H  0.17790973  0.87625920  0.13967347     0.05900
H708        H  0.13306819  0.90474422  0.14375772     0.09100
H709        H  0.15841959  0.90439533  0.10788554     0.09100
H710        H  0.06929184  0.73073479  0.07873839     0.09100
H711        H  0.02969256  0.76603442  0.07445812     0.09100
H712        H  0.03847296  0.74095167  0.11056966     0.05900
C713        C  0.12990646  0.65782830  0.41064994    -0.19900
C714        C  0.15240395  0.69003652  0.42053370    -0.06500
C715        C  0.17227946  0.71270710  0.39789662     0.14400
C716        C  0.16694696  0.70399053  0.36636824    -0.20000
C717        C  0.14242511  0.67325193  0.35660060    -0.06500
C718        C  0.12533030  0.64880314  0.37924874     0.14300
C719        C  0.10266811  0.61268341  0.37063196    -0.23300
H720        H  0.11493025  0.64004934  0.42767350     0.15600
H721        H  0.18145137  0.72172626  0.34904391     0.15700
C722        C  0.19830578  0.74678868  0.40645780    -0.23300
H723        H  0.09464197  0.59500514  0.39122955     0.05900
H724        H  0.12040385  0.59360429  0.35557662     0.09100
H725        H  0.07526839  0.62191665  0.35880567     0.09100
H726        H  0.22172100  0.73605154  0.42237143     0.09100
H727        H  0.18124127  0.77010032  0.41781172     0.09100
H728        H  0.21226458  0.76032000  0.38597491     0.05900
C729        C  0.16084096  0.70897852  0.13565778    -0.19900
C730        C  0.13622492  0.67831902  0.14526229    -0.06500
C731        C  0.11864358  0.65420467  0.12242911     0.14400
C732        C  0.12401814  0.66256904  0.09097488    -0.20000
C733        C  0.14749630  0.69399484  0.08117615    -0.06500
C734        C  0.16685396  0.71708070  0.10410012     0.14300
C735        C  0.19379778  0.75042097  0.09579543    -0.23300
H736        H  0.17562956  0.72644871  0.15306607     0.15600
H737        H  0.10908104  0.64478278  0.07382199     0.15700
C738        C  0.09507361  0.61872404  0.13090741    -0.23300
H739        H  0.20716412  0.76440052  0.11652190     0.05900
H740        H  0.17760961  0.77361439  0.08274067     0.09100
H741        H  0.21772142  0.73873165  0.08160966     0.09100
H742        H  0.06815638  0.62847153  0.14234079     0.09100
H743        H  0.11260281  0.59889048  0.14626801     0.09100
H744        H  0.08617431  0.60168538  0.11023555     0.05900
O745        O  0.11368236  0.69982365  0.96609357    -0.72600
O746        O  0.08190154  0.77375589  0.53202983    -0.73600
O747        O  0.08181096  0.77401176  0.96346841    -0.62200
O748        O  0.11344491  0.69944158  0.53292284    -0.70600
O749        O  0.17268360  0.72557862  0.53497004    -0.70100
O750        O  0.14106397  0.80020309  0.96529202    -0.61400
O751        O  0.14114598  0.79994359  0.53233387    -0.73900
O752        O  0.17293296  0.72599631  0.96666139    -0.72700
Cu753      Cu  0.09612281  0.73546741  0.49854331     1.04600
Cu754      Cu  0.15816452  0.76442798  0.00006467     1.04300
C755        C  0.14674054  0.70486898  0.95335314     0.93600
C756        C  0.10812814  0.79497397  0.54516446     0.92800
C757        C  0.10853740  0.79469665  0.95099596     0.84900
C758        C  0.14582510  0.70489528  0.54739188     0.91200
O759        O  0.04143808  0.52947276  0.96687808    -0.72600
O760        O  0.01443761  0.94292072  0.53252114    -0.73600
O761        O  0.01484558  0.95044518  0.96543815    -0.62200
O762        O  0.04103355  0.51831734  0.53607203    -0.70600
O763        O  0.23601341  0.54810056  0.53496581    -0.70100
O764        O  0.20979541  0.97655480  0.96412555    -0.61400
O765        O  0.20882947  0.97139222  0.53287688    -0.73900
O766        O  0.23657499  0.55466110  0.96742650    -0.72700
Cu767      Cu  0.02947695  0.48169253  0.50039365     1.04600
Cu768      Cu  0.21908146  0.51315698  0.49981195     1.04300
C769        C  0.26966812  0.55229809  0.95442882     0.93600
C770        C  0.23684327  0.95165404  0.54552593     0.92800
C771        C  0.23728373  0.95756964  0.95116084     0.84900
C772        C  0.26917714  0.54349603  0.54867869     0.91200
C773        C  0.21763352  0.62289656  0.75049256     0.30400
C774        C  0.04724261  0.62553939  0.75049058     0.30400
C775        C  0.23792898  0.60335475  0.72283147    -0.05800
C776        C  0.23581369  0.66473417  0.75054015    -0.06600
C777        C  0.23823142  0.60289566  0.77858275    -0.06500
C778        C  0.02753630  0.60499610  0.72268698    -0.05800
C779        C  0.02639033  0.66612755  0.75084095    -0.06600
C780        C  0.02894495  0.60345239  0.77787880    -0.06500
C781        C  0.03969188  0.58908026  0.69532816    -0.31900
N782        N  0.26034589  0.58028083  0.67815210     0.14600
C783        C  0.22736065  0.58756260  0.69442214    -0.31900
H784        H  0.19789942  0.58340990  0.68574455     0.16600
C785        C  0.03645256  0.70590622  0.75034619    -0.30900
N786        N  0.25280214  0.72842587  0.74970050     0.13300
C787        C  0.22192006  0.70319523  0.74972592    -0.30800
C788        C  0.04219054  0.58738176  0.80540788    -0.31100
N789        N  0.26120054  0.57978426  0.82383167     0.13900
H790        H  0.07233083  0.58571249  0.81308832     0.16500
C791        C  0.22801273  0.58737874  0.80704529    -0.31100
H792        H  0.19871532  0.58428223  0.81578191     0.16500
H793        H  0.19158891  0.71201443  0.74906265     0.16500
H794        H  0.06955805  0.58620433  0.68815151     0.16600
H795        H  0.06585095  0.71749176  0.74977606     0.16500
C796        C  0.03575425  0.87589585  0.74914867     0.30400
C797        C  0.20619256  0.87307701  0.74865305     0.30400
C798        C  0.01458108  0.89656049  0.72162018    -0.05800
C799        C  0.01765825  0.83394844  0.74867540    -0.06600
C800        C  0.01592557  0.89471401  0.77743016    -0.06500
C801        C  0.22487901  0.89518585  0.72146288    -0.05800
C802        C  0.22701053  0.83244078  0.74838537    -0.06600
C803        C  0.22557913  0.89352395  0.77662442    -0.06500
C804        C  0.21183624  0.91117320  0.69386202    -0.31900
N805        N  0.24302380  0.92071476  0.67643056     0.14600
C806        C  0.02424562  0.91281474  0.69326549    -0.31900
H807        H  0.05337038  0.91607448  0.68427393     0.16600
C808        C  0.21694103  0.79265684  0.74854350    -0.30900
N809        N  0.25035775  0.77041143  0.74888156     0.13300
C810        C  0.03152679  0.79543869  0.74897475    -0.30800
C811        C  0.21307925  0.90920675  0.80395082    -0.31100
N812        N  0.24461150  0.91785956  0.82206441     0.13900
H813        H  0.18313677  0.91228186  0.81075602     0.16500
C814        C  0.02670212  0.91027970  0.80593123    -0.31100
H815        H  0.05626359  0.91449433  0.81452905     0.16500
H816        H  0.06189855  0.78660222  0.74915675     0.16500
H817        H  0.18171768  0.91313287  0.68618365     0.16600
H818        H  0.18755502  0.78107411  0.74868351     0.16500
C819        C  0.08104463  0.87598884  0.74871380     0.30400
C820        C  0.16088855  0.87298538  0.74844939     0.30400
C821        C  0.09917658  0.85598561  0.72052370    -0.05800
C822        C  0.10201839  0.91646869  0.74946146    -0.06600
C823        C  0.10073579  0.85359521  0.77577938    -0.06500
C824        C  0.13976939  0.85443486  0.72014709    -0.05800
C825        C  0.14259525  0.91472281  0.74923047    -0.06600
C826        C  0.14128192  0.85213436  0.77603653    -0.06500
C827        C  0.14967127  0.84052590  0.69125568    -0.31900
N828        N  0.11633680  0.83472151  0.67416506     0.14600
C829        C  0.08552153  0.84263240  0.69232261    -0.31900
H830        H  0.05528816  0.84098292  0.68470716     0.16600
C831        C  0.15640587  0.95313272  0.74971673    -0.30900
N832        N  0.12549603  0.97830519  0.75029894     0.13300
C833        C  0.09204540  0.95620770  0.75017977    -0.30800
C834        C  0.15259862  0.83672638  0.80461574    -0.31100
N835        N  0.12004133  0.82945184  0.82138689     0.13900
H836        H  0.18234381  0.83316373  0.81320873     0.16500
C837        C  0.08841869  0.83835438  0.80344113    -0.31100
H838        H  0.05852987  0.83631121  0.81088463     0.16500
H839        H  0.06265587  0.96787422  0.75047646     0.16500
H840        H  0.17892671  0.83654202  0.68291036     0.16600
H841        H  0.18672762  0.96198254  0.74954935     0.16500
C842        C  0.09251031  0.62571834  0.75054408     0.30400
C843        C  0.17233350  0.62289123  0.75043132     0.30400
C844        C  0.11352718  0.64514609  0.77853368    -0.05800
C845        C  0.11089178  0.58400009  0.75050240    -0.06600
C846        C  0.11210147  0.64577819  0.72256840    -0.06500
C847        C  0.15409296  0.64380854  0.77812906    -0.05800
C848        C  0.15146693  0.58234297  0.75044965    -0.06600
C849        C  0.15265108  0.64436038  0.72285189    -0.06500
C850        C  0.16779302  0.65790611  0.80607005    -0.31900
N851        N  0.13705015  0.66584236  0.82425197     0.14600
C852        C  0.10366313  0.65934660  0.80736915    -0.31900
H853        H  0.07439986  0.66287221  0.81589799     0.16600
C854        C  0.16155691  0.54261188  0.75030807    -0.30900
N855        N  0.12816714  0.52043534  0.75028777     0.13300
C856        C  0.09718253  0.54554751  0.75040492    -0.30800
C857        C  0.16487987  0.65952335  0.69513894    -0.31100
N858        N  0.13326142  0.66831985  0.67708377     0.13900
H859        H  0.19495632  0.66197081  0.68788418     0.16500
C860        C  0.10074239  0.66118339  0.69397760    -0.31100
H861        H  0.07101613  0.66527511  0.68568056     0.16500
H862        H  0.06687539  0.53663613  0.75034257     0.16500
H863        H  0.19802917  0.65982158  0.81359972     0.16600
H864        H  0.19098294  0.53100410  0.75017833     0.16500
C865        C  0.00183785  0.90964049  0.90929547    -0.19900
C866        C  0.23327903  0.94408471  0.91845464    -0.06500
C867        C  0.21220304  0.96605404  0.89545328     0.14400
C868        C  0.21753675  0.95767244  0.86396495    -0.20000
C869        C  0.24252868  0.92737696  0.85455180    -0.06500
C870        C  0.00738444  0.90144150  0.87793181     0.14300
C871        C  0.02955465  0.86508885  0.86962851    -0.23300
H872        H  0.01639253  0.89145677  0.92672804     0.15600
H873        H  0.20194755  0.97474644  0.84641329     0.15700
C874        C  0.18428127  0.99863084  0.90354485    -0.23300
H875        H  0.03714899  0.84715862  0.89038391     0.05900
H876        H  0.05699187  0.87385250  0.85843807     0.09100
H877        H  0.01155659  0.84643955  0.85393996     0.09100
H878        H  0.19991758  0.02233095  0.91609757     0.09100
H879        H  0.16061090  0.98653656  0.91803741     0.09100
H880        H  0.17034144  0.01219821  0.88267333     0.05900
C881        C  0.21674460  0.96576825  0.59900137    -0.19900
C882        C  0.23408097  0.93909159  0.57851766    -0.06500
C883        C  0.99976773  0.90196933  0.59181680     0.14400
C884        C  0.00434931  0.89899171  0.62413719    -0.20000
C885        C  0.24105260  0.92836216  0.64359313    -0.06500
C886        C  0.21972976  0.96064745  0.63121848     0.14300
C887        C  0.20094608  0.99026101  0.65203375    -0.23300
H888        H  0.20191450  0.99173464  0.58979671     0.15600
H889        H  0.02054487  0.87440464  0.63421919     0.15700
C890        C  0.01699598  0.87037690  0.57198756    -0.23300
H891        H  0.18868161  0.01576569  0.63879644     0.05900
H892        H  0.22288796  0.00157432  0.66890690     0.09100
H893        H  0.17666243  0.97634442  0.66470940     0.09100
H894        H  0.04121188  0.88245913  0.55814758     0.09100
H895        H  0.99399827  0.85810194  0.55644509     0.09100
H896        H  0.02889765  0.84570110  0.58625094     0.05900
C897        C  0.03561769  0.53406221  0.90097736    -0.19900
C898        C  0.27279232  0.56492527  0.92162529    -0.06500
C899        C  0.25204082  0.59751317  0.90888736     0.14400
C900        C  0.24763345  0.60111965  0.87659893    -0.20000
C901        C  0.26398782  0.57331502  0.85668804    -0.06500
C902        C  0.03379906  0.53870138  0.86871049     0.14300
C903        C  0.05335625  0.50885049  0.84855653    -0.23300
H904        H  0.05034813  0.50836338  0.91072360     0.15600
H905        H  0.23181812  0.62609502  0.86670239     0.15700
C906        C  0.23545670  0.62900706  0.92913668    -0.23300
H907        H  0.06569927  0.48381198  0.86229771     0.05900
H908        H  0.07768109  0.52281590  0.83595630     0.09100
H909        H  0.03185526  0.49683800  0.83162736     0.09100
H910        H  0.25870668  0.64046465  0.94484558     0.09100
H911        H  0.21103945  0.61708877  0.94284874     0.09100
H912        H  0.22413412  0.65422844  0.91518730     0.05900
C913        C  0.25040876  0.58792283  0.59125466    -0.19900
C914        C  0.27344995  0.55631670  0.58152674    -0.06500
C915        C  0.03961992  0.53033167  0.60453223     0.14400
C916        C  0.03485576  0.53943724  0.63596954    -0.20000
C917        C  0.26304431  0.57146198  0.64556186    -0.06500
C918        C  0.24563531  0.59613984  0.62268377     0.14300
C919        C  0.22296864  0.63210199  0.63109691    -0.23300
H920        H  0.23532178  0.60596120  0.57407077     0.15600
H921        H  0.05106504  0.52300515  0.65356494     0.15700
C922        C  0.06771147  0.49783561  0.59655275    -0.23300
H923        H  0.21515238  0.65005482  0.61041392     0.05900
H924        H  0.24070667  0.65092110  0.64683029     0.09100
H925        H  0.19552499  0.62285315  0.64207065     0.09100
H926        H  0.09101298  0.50983340  0.58165589     0.09100
H927        H  0.05210778  0.47373077  0.58444494     0.09100
H928        H  0.08210964  0.48480590  0.61744333     0.05900
C929        C  0.12800918  0.83887303  0.90797517    -0.19900
C930        C  0.10515870  0.80710392  0.91796957    -0.06500
C931        C  0.08651941  0.78307370  0.89530370     0.14400
C932        C  0.09354339  0.78995104  0.86380967    -0.20000
C933        C  0.11777597  0.82073188  0.85401684    -0.06500
C934        C  0.13375652  0.84640006  0.87648419     0.14300
C935        C  0.15582815  0.88258330  0.86746828    -0.23300
H936        H  0.14213541  0.85758053  0.92501075     0.15600
H937        H  0.07957983  0.77156209  0.84650779     0.15700
C938        C  0.05899252  0.75023953  0.90375422    -0.23300
H939        H  0.16328259  0.90090355  0.88780662     0.05900
H940        H  0.13784690  0.90091071  0.85126678     0.09100
H941        H  0.18340455  0.87343331  0.85677485     0.09100
H942        H  0.03460457  0.76254787  0.91716797     0.05700
H943        H  0.07449995  0.72729606  0.91753753     0.09100
H944        H  0.04617835  0.73568474  0.88306955     0.05900
C945        C  0.12594725  0.84130789  0.58739454    -0.19900
C946        C  0.10337980  0.80911181  0.57748641    -0.06500
C947        C  0.08329009  0.78662941  0.60013079     0.14400
C948        C  0.08841808  0.79552520  0.63165238    -0.20000
C949        C  0.11292968  0.82622134  0.64150256    -0.06500
C950        C  0.13040611  0.85041968  0.61885181     0.14300
C951        C  0.15340765  0.88626907  0.62755101    -0.23300
H952        H  0.14120616  0.85886739  0.57040522     0.15600
H953        H  0.07368008  0.77799149  0.64892563     0.15700
C954        C  0.05688062  0.75273667  0.59163866    -0.23300
H955        H  0.18046813  0.87671908  0.63969236     0.05900
H956        H  0.13578811  0.90569437  0.64240811     0.09100
H957        H  0.16189173  0.90364698  0.60692951     0.09100
H958        H  0.07361466  0.72941059  0.57999074     0.09100
H959        H  0.03301991  0.76354455  0.57611131     0.09100
H960        H  0.04330963  0.73906552  0.61221375     0.05900
C961        C  0.12920061  0.65843681  0.91110332    -0.19900
C962        C  0.15138638  0.69094853  0.92092731    -0.06500
C963        C  0.17077336  0.71385765  0.89815612     0.14400
C964        C  0.16507920  0.70524264  0.86662476    -0.20000
C965        C  0.14076374  0.67429197  0.85690353    -0.06500
C966        C  0.12426284  0.64951186  0.87964576     0.14300
C967        C  0.10186972  0.61318980  0.87103545    -0.23300
H968        H  0.11461225  0.64044520  0.92819148     0.15600
H969        H  0.17924886  0.72313359  0.84927287     0.15700
C970        C  0.19708515  0.74780138  0.90659253    -0.23300
H971        H  0.09411032  0.59539873  0.89164952     0.05900
H972        H  0.11965912  0.59430768  0.85586714     0.09100
H973        H  0.07437829  0.62216632  0.85924428     0.09100
H974        H  0.22085639  0.73692624  0.92214334     0.09100
H975        H  0.18036662  0.77105478  0.91829981     0.09100
H976        H  0.21064736  0.76147656  0.88600187     0.05900
C977        C  0.16068169  0.70793442  0.63493600    -0.19900
C978        C  0.13546563  0.67776698  0.64448007    -0.06500
C979        C  0.11789436  0.65361270  0.62163414     0.14400
C980        C  0.12443617  0.66124108  0.59022269    -0.20000
C981        C  0.14861429  0.69219724  0.58049679    -0.06500
C982        C  0.16763060  0.71542988  0.60346652     0.14300
C983        C  0.19530769  0.74821246  0.59531195    -0.23300
H984        H  0.17532579  0.72550701  0.65241204     0.15600
H985        H  0.10961885  0.64339025  0.57297818     0.15700
C986        C  0.09304774  0.61895107  0.63002807    -0.23300
H987        H  0.20842705  0.76223443  0.61612237     0.05900
H988        H  0.17981726  0.77153574  0.58188324     0.09100
H989        H  0.21936077  0.73593907  0.58156467     0.09100
H990        H  0.06620394  0.62954002  0.64115945     0.09100
H991        H  0.10975859  0.59872439  0.64560745     0.09100
H992        H  0.08387274  0.60198813  0.60935100     0.05900
O993        O  0.36269926  0.19715245  0.46831317    -0.72600
O994        O  0.32781839  0.27612585  0.03255644    -0.73600
O995        O  0.32997125  0.27094374  0.46495564    -0.62200
O996        O  0.36157948  0.20280989  0.03598131    -0.70600
O997        O  0.42020965  0.23032745  0.03759499    -0.70100
O998        O  0.38895185  0.29775409  0.46639452    -0.61400
O999        O  0.38658630  0.30343290  0.03320502    -0.73900
O1000       O  0.42169845  0.22389049  0.46874925    -0.72700
Cu1001     Cu  0.34356460  0.23687896  0.00022704     1.04600
Cu1002     Cu  0.40677634  0.26293439  0.50157171     1.04300
C1003       C  0.39575993  0.20231911  0.45559878     0.93600
C1004       C  0.35354964  0.29780989  0.04581964     0.92800
C1005       C  0.35647599  0.29169550  0.45217415     0.84900
C1006       C  0.39389269  0.20933977  0.05036863     0.91200
O1007       O  0.29515068  0.03016962  0.46726040    -0.72600
O1008       O  0.27114336  0.45208649  0.03264431    -0.73600
O1009       O  0.26673084  0.45324649  0.46448284    -0.62200
O1010       O  0.29828348  0.02569857  0.03540855    -0.70600
O1011       O  0.48252674  0.04593232  0.03484126    -0.70100
O1012       O  0.45320196  0.46923473  0.46433036    -0.61400
O1013       O  0.45553436  0.47236012  0.03342720    -0.73900
O1014       O  0.48103239  0.04631505  0.46731132    -0.72700
Cu1015     Cu  0.28629217  0.98911309  0.00002375     1.04600
Cu1016     Cu  0.46669500  0.01025002  0.99982750     1.04300
C1017       C  0.51442801  0.04369824  0.45471753     0.93600
C1018       C  0.48340272  0.45262510  0.04629478     0.92800
C1019       C  0.48091239  0.45072799  0.45128025     0.84900
C1020       C  0.51574130  0.04205590  0.04859323     0.91200
C1021       C  0.46865780  0.12040693  0.25190178     0.30400
C1022       C  0.29837900  0.12413264  0.25147022     0.30400
C1023       C  0.48814994  0.10144174  0.22367713    -0.05800
C1024       C  0.48670877  0.16236704  0.25221575    -0.06600
C1025       C  0.48991416  0.09985317  0.27931949    -0.06500
C1026       C  0.27948851  0.10307523  0.22359261    -0.05800
C1027       C  0.27723345  0.16466335  0.25106923    -0.06600
C1028       C  0.27949635  0.10238763  0.27863197    -0.06500
C1029       C  0.29255431  0.08798622  0.19626733    -0.31900
N1030       N  0.50908454  0.07881713  0.17841485     0.14600
C1031       C  0.47667830  0.08580818  0.19542374    -0.31900
H1032       H  0.44691446  0.08148540  0.18736874     0.16600
C1033       C  0.28687050  0.20457226  0.25050598    -0.30900
N1034       N  0.50331302  0.22626247  0.25097629     0.13300
C1035       C  0.47263498  0.20080116  0.25181837    -0.30800
C1036       C  0.29241591  0.08680013  0.30634392    -0.31100
N1037       N  0.51331887  0.07547910  0.32403719     0.13900
H1038       H  0.32249553  0.08496952  0.31419877     0.16500
C1039       C  0.48004426  0.08326925  0.30742681    -0.31100
H1040       H  0.45081191  0.07970076  0.31614412     0.16500
H1041       H  0.44227142  0.20944030  0.25175672     0.16500
H1042       H  0.32261226  0.08566318  0.18952696     0.16600
H1043       H  0.31618223  0.21645052  0.25058599     0.16500
C1044       C  0.28487344  0.37423792  0.24933569     0.30400
C1045       C  0.45508230  0.37048439  0.24905501     0.30400
C1046       C  0.26435027  0.39481280  0.22144404    -0.05800
C1047       C  0.26682598  0.33234273  0.24869715    -0.06600
C1048       C  0.26462658  0.39313388  0.27727959    -0.06500
C1049       C  0.47309147  0.39282593  0.22166807    -0.05800
C1050       C  0.47637888  0.33010157  0.24872763    -0.06600
C1051       C  0.47449761  0.39127142  0.27671495    -0.06500
C1052       C  0.45926687  0.40981807  0.19463790    -0.31900
N1053       N  0.48995578  0.42058878  0.17707417     0.14600
C1054       C  0.27487045  0.41148765  0.19340717    -0.31900
H1055       H  0.30429879  0.41513322  0.18510133     0.16600
C1056       C  0.46681255  0.29017866  0.24950363    -0.30900
N1057       N  0.50046522  0.26826953  0.24969365     0.13300
C1058       C  0.28098017  0.29396734  0.24896801    -0.30800
C1059       C  0.46177179  0.40705093  0.30386734    -0.31100
N1060       N  0.49310510  0.41678613  0.32170018     0.13900
H1061       H  0.43171598  0.40937555  0.31092668     0.16500
C1062       C  0.27514254  0.40893855  0.30573885    -0.31100
H1063       H  0.30463226  0.41320286  0.31444430     0.16500
H1064       H  0.31138998  0.28533799  0.24950029     0.16500
H1065       H  0.42906368  0.41174403  0.18749447     0.16600
H1066       H  0.43755860  0.27828694  0.25022191     0.16500
C1067       C  0.33008284  0.37410974  0.24946319     0.30400
C1068       C  0.40980889  0.37038291  0.24926833     0.30400
C1069       C  0.34807075  0.35352239  0.22156919    -0.05800
C1070       C  0.35132485  0.41446755  0.24995610    -0.06600
C1071       C  0.34943342  0.35183690  0.27675016    -0.06500
C1072       C  0.38859253  0.35168862  0.22109862    -0.05800
C1073       C  0.39184317  0.41232721  0.24979143    -0.06600
C1074       C  0.38999146  0.34999303  0.27710274    -0.06500
C1075       C  0.39820387  0.33805752  0.19203590    -0.31900
N1076       N  0.36464941  0.33230826  0.17521195     0.14600
C1077       C  0.33408442  0.34020861  0.19352168    -0.31900
H1078       H  0.30384144  0.33888826  0.18599463     0.16600
C1079       C  0.40603237  0.45063562  0.25021498    -0.30900
N1080       N  0.37542190  0.47616109  0.25069682     0.13300
C1081       C  0.34174948  0.45436508  0.25055260    -0.30800
C1082       C  0.40094096  0.33442236  0.30578533    -0.31100
N1083       N  0.36814388  0.32724619  0.32239014     0.13900
H1084       H  0.43050637  0.33070976  0.31452289     0.16500
C1085       C  0.33674680  0.33653008  0.30430764    -0.31100
H1086       H  0.30676172  0.33461275  0.31155705     0.16500
H1087       H  0.31247029  0.46633471  0.25083000     0.16500
H1088       H  0.42736309  0.33465103  0.18325308     0.16600
H1089       H  0.43642485  0.45919750  0.25014854     0.16500
C1090       C  0.34371075  0.12402313  0.25215436     0.30400
C1091       C  0.42345553  0.12035616  0.25227212     0.30400
C1092       C  0.36475405  0.14277554  0.28047142    -0.05800
C1093       C  0.36171094  0.08202770  0.25183330    -0.06600
C1094       C  0.36366573  0.14446029  0.22455305    -0.06500
C1095       C  0.40534378  0.14082913  0.28026742    -0.05800
C1096       C  0.40226315  0.07992439  0.25183939    -0.06600
C1097       C  0.40412155  0.14262235  0.22491299    -0.06500
C1098       C  0.41902732  0.15408233  0.30851201    -0.31900
N1099       N  0.38820499  0.16246778  0.32652968     0.14600
C1100       C  0.35488112  0.15687960  0.30934970    -0.31900
H1101       H  0.32560856  0.16097281  0.31770907     0.16600
C1102       C  0.41189827  0.04000632  0.25173702    -0.30900
N1103       N  0.37826868  0.01814276  0.25165291     0.13300
C1104       C  0.34760024  0.04366053  0.25177275    -0.30800
C1105       C  0.41673709  0.15921108  0.19769534    -0.31100
N1106       N  0.38527057  0.16938272  0.17992472     0.13900
H1107       H  0.44669320  0.16166950  0.19052834     0.16500
C1108       C  0.35260830  0.16146938  0.19644922    -0.31100
H1109       H  0.32298476  0.16591231  0.18805300     0.16500
H1110       H  0.31719547  0.03507397  0.25179358     0.16500
H1111       H  0.44916393  0.15529552  0.31624007     0.16600
H1112       H  0.44123894  0.02804980  0.25174288     0.16500
C1113       C  0.25168265  0.41126626  0.40902993    -0.19900
C1114       C  0.47775841  0.43891633  0.41816962    -0.06500
C1115       C  0.45881580  0.46291916  0.39523335     0.14400
C1116       C  0.46596380  0.45623749  0.36372277    -0.20000
C1117       C  0.49050915  0.42560602  0.35423158    -0.06500
C1118       C  0.25620277  0.40182484  0.37774890     0.14300
C1119       C  0.27792753  0.36494849  0.36993135    -0.23300
H1120       H  0.26650865  0.39348684  0.42657873     0.15600
H1121       H  0.45185279  0.47460581  0.34621986     0.15700
C1122       C  0.43088664  0.49547087  0.40340730    -0.23300
H1123       H  0.28594918  0.34758540  0.39092070     0.05900
H1124       H  0.30518756  0.37305549  0.35822320     0.09100
H1125       H  0.25946505  0.34593251  0.35486782     0.09100
H1126       H  0.44587732  0.51795044  0.41763249     0.09100
H1127       H  0.40598991  0.48293113  0.41628728     0.09100
H1128       H  0.41876504  0.51073977  0.38255039     0.05900
C1129       C  0.46177849  0.46536835  0.09972893    -0.19900
C1130       C  0.48032999  0.43960180  0.07918631    -0.06500
C1131       C  0.25466088  0.40777519  0.09074076     0.14400
C1132       C  0.25752350  0.40196490  0.12299949    -0.20000
C1133       C  0.48735929  0.42853803  0.14427370    -0.06500
C1134       C  0.46487486  0.46015226  0.13198070     0.14300
C1135       C  0.44509872  0.48907567  0.15281838    -0.23300
H1136       H  0.44606851  0.49080127  0.09057456     0.15600
H1137       H  0.27292884  0.37639591  0.13226782     0.15700
C1138       C  0.27205994  0.37761209  0.06978920    -0.23300
H1139       H  0.43147437  0.51385943  0.13954165     0.05900
H1140       H  0.46678154  0.50161560  0.16933374     0.09100
H1141       H  0.42164037  0.47420835  0.16582761     0.09100
H1142       H  0.29777135  0.39005067  0.05789149     0.09100
H1143       H  0.24981963  0.36797692  0.05248755     0.09100
H1144       H  0.28155092  0.35110557  0.08299778     0.05900
C1145       C  0.28707967  0.03428276  0.40153589    -0.19900
C1146       C  0.51900292  0.05714794  0.42207782    -0.06500
C1147       C  0.49780479  0.08923687  0.40901398     0.14400
C1148       C  0.49629294  0.09436905  0.37673277    -0.20000
C1149       C  0.51544021  0.06835576  0.35694369    -0.06500
C1150       C  0.28400816  0.03847744  0.36932201     0.14300
C1151       C  0.30255346  0.00813620  0.34900381    -0.23300
H1152       H  0.30157879  0.00837043  0.41113243     0.15600
H1153       H  0.47998376  0.11897260  0.36671427     0.15700
C1154       C  0.47712139  0.11846780  0.42890355    -0.23300
H1155       H  0.31478766  0.98297385  0.36266916     0.05900
H1156       H  0.32684036  0.02156819  0.33600986     0.09100
H1157       H  0.28050600  0.99640935  0.33241254     0.09100
H1158       H  0.49758938  0.12999410  0.44680104     0.09100
H1159       H  0.45159869  0.10447857  0.43999583     0.09100
H1160       H  0.46638173  0.14394656  0.41499680     0.05900
C1161       C  0.49631405  0.08584813  0.09161251    -0.19900
C1162       C  0.51968913  0.05462296  0.08155957    -0.06500
C1163       C  0.29470417  0.03340147  0.10409772     0.14400
C1164       C  0.28849611  0.04052730  0.13562768    -0.20000
C1165       C  0.51067108  0.06978399  0.14579301    -0.06500
C1166       C  0.49249761  0.09428237  0.12313880     0.14300
C1167       C  0.47046047  0.13051777  0.13193691    -0.23300
H1168       H  0.48066631  0.10373451  0.07462152     0.15600
H1169       H  0.30292874  0.02227027  0.15302674     0.15700
C1170       C  0.32206147  0.00042649  0.09572994    -0.23300
H1171       H  0.46141454  0.14820606  0.11138512     0.05900
H1172       H  0.48914184  0.14952528  0.14684560     0.09100
H1173       H  0.44380792  0.12156560  0.14411730     0.09100
H1174       H  0.34653733  0.01243959  0.08207311     0.09100
H1175       H  0.30632002  0.97769903  0.08223053     0.09100
H1176       H  0.33488627  0.98556524  0.11649772     0.05900
C1177       C  0.37493702  0.33646784  0.40911539    -0.19900
C1178       C  0.35298225  0.30395948  0.41901915    -0.06500
C1179       C  0.33532123  0.27943020  0.39619856     0.14400
C1180       C  0.34203445  0.28686997  0.36467511    -0.20000
C1181       C  0.36554333  0.31834831  0.35502182    -0.06500
C1182       C  0.38074590  0.34425965  0.37762440     0.14300
C1183       C  0.40211644  0.38095381  0.36867972    -0.23300
H1184       H  0.38836568  0.35551296  0.42619715     0.15600
H1185       H  0.32874489  0.26817002  0.34731728     0.15700
C1186       C  0.30953929  0.24519588  0.40458472    -0.23300
H1187       H  0.40904733  0.39936902  0.38905880     0.05900
H1188       H  0.38391305  0.39893503  0.35239999     0.09100
H1189       H  0.42990123  0.37248948  0.35796965     0.09100
H1190       H  0.28488302  0.25621571  0.41824776     0.05700
H1191       H  0.32619983  0.22301913  0.41827310     0.09100
H1192       H  0.29729409  0.23016536  0.38389637     0.05900
C1193       C  0.37052318  0.34351796  0.08860267    -0.19900
C1194       C  0.34873640  0.31097380  0.07832777    -0.06500
C1195       C  0.32988206  0.28705434  0.10075655     0.14400
C1196       C  0.33636585  0.29427261  0.13237125    -0.20000
C1197       C  0.36054177  0.32505450  0.14247569    -0.06500
C1198       C  0.37590793  0.35120376  0.12020045     0.14300
C1199       C  0.39765682  0.38754891  0.12954061    -0.23300
H1200       H  0.38450186  0.36241204  0.07176853     0.15600
H1201       H  0.32278869  0.27551638  0.14950133     0.15700
C1202       C  0.30318594  0.25359187  0.09189966    -0.23300
H1203       H  0.42556699  0.37849993  0.14063734     0.05900
H1204       H  0.37988006  0.40523927  0.14556336     0.09100
H1205       H  0.40441302  0.40647162  0.10932324     0.09100
H1206       H  0.31947762  0.23058842  0.07956361     0.09100
H1207       H  0.27915029  0.26519496  0.07691112     0.09100
H1208       H  0.28994652  0.23928359  0.11236082     0.05900
C1209       C  0.37880633  0.15557139  0.41332889    -0.19900
C1210       C  0.40077059  0.18819193  0.42327513    -0.06500
C1211       C  0.42057343  0.21096812  0.40062967     0.14400
C1212       C  0.41553885  0.20208672  0.36907978    -0.20000
C1213       C  0.39156048  0.17098366  0.35920826    -0.06500
C1214       C  0.37467141  0.14636154  0.38184786     0.14300
C1215       C  0.35262049  0.10999090  0.37303379    -0.23300
H1216       H  0.36386118  0.13769590  0.43029533     0.15600
H1217       H  0.42994432  0.21991049  0.35181404     0.15700
C1218       C  0.44652759  0.24519658  0.40914267    -0.23300
H1219       H  0.34458741  0.09230003  0.39360551     0.05900
H1220       H  0.37070214  0.09110825  0.35809148     0.09100
H1221       H  0.32541714  0.11901064  0.36087222     0.09100
H1222       H  0.47041919  0.23469621  0.42477734     0.09100
H1223       H  0.42944436  0.26837620  0.42065195     0.09100
H1224       H  0.46007504  0.25895017  0.38859493     0.05900
C1225       C  0.41054611  0.21147837  0.13808861    -0.19900
C1226       C  0.38731722  0.17959920  0.14744997    -0.06500
C1227       C  0.37113861  0.15482068  0.12446970     0.14400
C1228       C  0.37589957  0.16389248  0.09308633    -0.20000
C1229       C  0.39768979  0.19662319  0.08347763    -0.06500
C1230       C  0.41609259  0.22029996  0.10655155     0.14300
C1231       C  0.44126171  0.25513974  0.09842360    -0.23300
H1232       H  0.42445060  0.22947224  0.15566138     0.15600
H1233       H  0.36188073  0.14549073  0.07582202     0.15700
C1234       C  0.34989933  0.11783553  0.13282942    -0.23300
H1235       H  0.45357118  0.26982078  0.11925906     0.05900
H1236       H  0.42399994  0.27738958  0.08524633     0.09100
H1237       H  0.46595511  0.24498248  0.08436327     0.09100
H1238       H  0.32249280  0.12598154  0.14422068     0.09100
H1239       H  0.36849909  0.09910678  0.14828872     0.09100
H1240       H  0.34220628  0.10029833  0.11212498     0.05900
O1241       O  0.36316036  0.19934203  0.96826325    -0.72600
O1242       O  0.32884750  0.27335607  0.53356147    -0.73600
O1243       O  0.32967784  0.27267207  0.96414481    -0.62200
O1244       O  0.36180705  0.19964199  0.53576435    -0.70600
O1245       O  0.42073836  0.22656054  0.53718783    -0.70100
O1246       O  0.38834866  0.30013807  0.96593664    -0.61400
O1247       O  0.38782575  0.30019603  0.53391045    -0.73900
O1248       O  0.42185104  0.22674686  0.96878999    -0.72700
Cu1249     Cu  0.34382412  0.23443421  0.50063696     1.04600
Cu1250     Cu  0.40621289  0.26601795  0.00139273     1.04300
C1251       C  0.39623053  0.20477977  0.95561272     0.93600
C1252       C  0.35481660  0.29492217  0.54668136     0.92800
C1253       C  0.35617282  0.29351219  0.95146050     0.84900
C1254       C  0.39428269  0.20582285  0.54997921     0.91200
O1255       O  0.29763223  0.02988589  0.96713169    -0.72600
O1256       O  0.26752574  0.44870045  0.53226124    -0.73600
O1257       O  0.27083414  0.45606379  0.96470327    -0.62200
O1258       O  0.29633010  0.02518023  0.53561582    -0.70600
O1259       O  0.48047552  0.04228946  0.53513586    -0.70100
O1260       O  0.45501526  0.47510284  0.96447514    -0.61400
O1261       O  0.45354827  0.46528850  0.53326526    -0.73900
O1262       O  0.48251785  0.04895693  0.96683278    -0.72700
Cu1263     Cu  0.28446835  0.98896202  0.49978905     1.04600
Cu1264     Cu  0.46483734  0.00710042  0.49983366     1.04300
C1265       C  0.51555875  0.04587868  0.95376655     0.93600
C1266       C  0.48135409  0.44548748  0.54618759     0.92800
C1267       C  0.48273013  0.45628022  0.95166184     0.84900
C1268       C  0.51364077  0.03853896  0.54896941     0.91200
C1269       C  0.46728207  0.12253812  0.75107891     0.30400
C1270       C  0.29708931  0.12587593  0.75168137     0.30400
C1271       C  0.48664184  0.10349181  0.72279880    -0.05800
C1272       C  0.48563635  0.16436834  0.75147439    -0.06600
C1273       C  0.48834874  0.10171054  0.77838304    -0.06500
C1274       C  0.27806969  0.10469920  0.72389500    -0.05800
C1275       C  0.27610581  0.16642317  0.75121764    -0.06600
C1276       C  0.27825993  0.10442112  0.77893672    -0.06500
C1277       C  0.29095873  0.08903340  0.69669953    -0.31900
N1278       N  0.50753125  0.07996531  0.67782203     0.14600
C1279       C  0.47512685  0.08741406  0.69472470    -0.31900
H1280       H  0.44531506  0.08285679  0.68678279     0.16600
C1281       C  0.28616155  0.20616982  0.75080903    -0.30900
N1282       N  0.50306297  0.22805596  0.75090204     0.13300
C1283       C  0.47203355  0.20296858  0.75144249    -0.30800
C1284       C  0.29151928  0.08898204  0.80658473    -0.31100
N1285       N  0.51139657  0.07678171  0.82292497     0.13900
H1286       H  0.32144879  0.08702023  0.81409204     0.16500
C1287       C  0.47823449  0.08495846  0.80635439    -0.31100
H1288       H  0.44894362  0.08149028  0.81502406     0.16500
H1289       H  0.44174512  0.21196989  0.75152198     0.16500
H1290       H  0.32118941  0.08651560  0.68993847     0.16600
H1291       H  0.31560365  0.21772088  0.75101450     0.16500
C1292       C  0.28651236  0.37583303  0.74917483     0.30400
C1293       C  0.45650835  0.37252963  0.74964740     0.30400
C1294       C  0.26593345  0.39632581  0.72132485    -0.05800
C1295       C  0.26805771  0.33410894  0.74892077    -0.06600
C1296       C  0.26685896  0.39528796  0.77707328    -0.06500
C1297       C  0.47472906  0.39479970  0.72250405    -0.05800
C1298       C  0.47754500  0.33208326  0.74930909    -0.06600
C1299       C  0.47587513  0.39303841  0.77745200    -0.06500
C1300       C  0.46090985  0.41092593  0.69526592    -0.31900
N1301       N  0.49153300  0.42095659  0.67749831     0.14600
C1302       C  0.27623944  0.41224759  0.69300360    -0.31900
H1303       H  0.30555150  0.41526957  0.68429285     0.16600
C1304       C  0.46748758  0.29234949  0.74984382    -0.30900
N1305       N  0.50085206  0.27008632  0.75009708     0.13300
C1306       C  0.28162688  0.29551090  0.74916249    -0.30800
C1307       C  0.46305690  0.40857956  0.80462970    -0.31100
N1308       N  0.49429297  0.41784286  0.82273925     0.13900
H1309       H  0.43286545  0.41114817  0.81145202     0.16500
C1310       C  0.27816499  0.41142307  0.80516996    -0.31100
H1311       H  0.30791506  0.41560229  0.81338979     0.16500
H1312       H  0.31189331  0.28646956  0.74938717     0.16500
H1313       H  0.43061490  0.41236671  0.68792368     0.16600
H1314       H  0.43806481  0.28079139  0.75027614     0.16500
C1315       C  0.33159626  0.37569571  0.74928048     0.30400
C1316       C  0.41125544  0.37250264  0.74938017     0.30400
C1317       C  0.34973119  0.35528973  0.72144863    -0.05800
C1318       C  0.35251504  0.41619992  0.74990558    -0.06600
C1319       C  0.35091129  0.35339783  0.77652938    -0.06500
C1320       C  0.39027111  0.35374219  0.72103676    -0.05800
C1321       C  0.39303806  0.41442276  0.74996676    -0.06600
C1322       C  0.39142483  0.35174325  0.77695531    -0.06500
C1323       C  0.39991027  0.33935436  0.69216922    -0.31900
N1324       N  0.36632765  0.33280569  0.67553216     0.14600
C1325       C  0.33575926  0.34103861  0.69371863    -0.31900
H1326       H  0.30546978  0.33918288  0.68630905     0.16600
C1327       C  0.40675987  0.45296566  0.75046918    -0.30900
N1328       N  0.37580033  0.47819025  0.75073382     0.13300
C1329       C  0.34243506  0.45597957  0.75039981    -0.30800
C1330       C  0.40239698  0.33516626  0.80523184    -0.31100
N1331       N  0.36961352  0.32745001  0.82168649     0.13900
H1332       H  0.43199864  0.33110559  0.81382845     0.16500
C1333       C  0.33821480  0.33726349  0.80377486    -0.31100
H1334       H  0.30819640  0.33526821  0.81101611     0.16500
H1335       H  0.31299475  0.46761524  0.75043431     0.16500
H1336       H  0.42903463  0.33591654  0.68336554     0.16600
H1337       H  0.43705218  0.46183770  0.75058182     0.16500
C1338       C  0.34242675  0.12585174  0.75234162     0.30400
C1339       C  0.42214171  0.12256206  0.75182084     0.30400
C1340       C  0.36376585  0.14448104  0.78069003    -0.05800
C1341       C  0.36058883  0.08391666  0.75166013    -0.06600
C1342       C  0.36201524  0.14661331  0.72470308    -0.06500
C1343       C  0.40436055  0.14278064  0.78006912    -0.05800
C1344       C  0.40112314  0.08208335  0.75129870    -0.06600
C1345       C  0.40247299  0.14494496  0.72481120    -0.06500
C1346       C  0.41851477  0.15620624  0.80813528    -0.31900
N1347       N  0.38804784  0.16433981  0.82656982     0.14600
C1348       C  0.35442121  0.15846002  0.80978257    -0.31900
H1349       H  0.32529612  0.16227069  0.81857901     0.16600
C1350       C  0.41111151  0.04227983  0.75079623    -0.30900
N1351       N  0.37770034  0.02012377  0.75091418     0.13300
C1352       C  0.34679203  0.04539137  0.75148553    -0.30800
C1353       C  0.41482823  0.16092294  0.69738324    -0.31100
N1354       N  0.38320057  0.17070891  0.67972626     0.13900
H1355       H  0.44465041  0.16286077  0.68986202     0.16500
C1356       C  0.35066632  0.16305610  0.69647082    -0.31100
H1357       H  0.32093342  0.16709030  0.68809360     0.16500
H1358       H  0.31649805  0.03655742  0.75182975     0.16500
H1359       H  0.44883403  0.15766176  0.81547922     0.16600
H1360       H  0.44047685  0.03062036  0.75045658     0.16500
C1361       C  0.25742739  0.41484180  0.90866871    -0.19900
C1362       C  0.47932802  0.44294873  0.91890730    -0.06500
C1363       C  0.45924718  0.46534607  0.89560780     0.14400
C1364       C  0.46600010  0.45749796  0.86421240    -0.20000
C1365       C  0.49145005  0.42735293  0.85517097    -0.06500
C1366       C  0.26158918  0.40550651  0.87734084     0.14300
C1367       C  0.28364244  0.36895072  0.86933769    -0.23300
H1368       H  0.27289205  0.39738558  0.92606635     0.15600
H1369       H  0.45109379  0.47479845  0.84643062     0.15700
C1370       C  0.43083766  0.49769125  0.90329047    -0.23300
H1371       H  0.29214873  0.35181357  0.89028839     0.05900
H1372       H  0.31060927  0.37734761  0.85731882     0.09100
H1373       H  0.26513989  0.34962154  0.85456583     0.09100
H1374       H  0.44574503  0.52118610  0.91657416     0.09100
H1375       H  0.40656921  0.48526310  0.91696033     0.09100
H1376       H  0.41782865  0.51166028  0.88220609     0.05900
C1377       C  0.46126758  0.46114645  0.59934163    -0.19900
C1378       C  0.47883648  0.43395309  0.57940025    -0.06500
C1379       C  0.25145014  0.40556461  0.59073556     0.14400
C1380       C  0.25594194  0.40078369  0.62297349    -0.20000
C1381       C  0.48846835  0.42712425  0.64455963    -0.06500
C1382       C  0.46553410  0.45795250  0.63162090     0.14300
C1383       C  0.44625181  0.48799860  0.65179972    -0.23300
H1384       H  0.44528235  0.48612986  0.58960375     0.15600
H1385       H  0.27078512  0.37492372  0.63229563     0.15700
C1386       C  0.26652210  0.37393085  0.56986341    -0.23300
H1387       H  0.43260213  0.51225891  0.63795037     0.05900
H1388       H  0.46819702  0.50110353  0.66780685     0.09100
H1389       H  0.42287764  0.47393988  0.66542098     0.09100
H1390       H  0.29107452  0.38527518  0.55602127     0.09100
H1391       H  0.24256654  0.36372188  0.55425308     0.09100
H1392       H  0.27726496  0.34796675  0.58327269     0.05900
C1393       C  0.28943833  0.03610396  0.90124440    -0.19900
C1394       C  0.51916000  0.05856219  0.92084091    -0.06500
C1395       C  0.49882561  0.09143543  0.90809616     0.14400
C1396       C  0.49607905  0.09625148  0.87581292    -0.20000
C1397       C  0.51349867  0.06934755  0.85574934    -0.06500
C1398       C  0.28490166  0.04048918  0.86911968     0.14300
C1399       C  0.30250042  0.01023576  0.84818852    -0.23300
H1400       H  0.30424076  0.01006396  0.91034481     0.15600
H1401       H  0.48060680  0.12149650  0.86603328     0.15700
C1402       C  0.48072298  0.12201953  0.92834796    -0.23300
H1403       H  0.31509374  0.98489540  0.86142957     0.05900
H1404       H  0.32635413  0.02359477  0.83469011     0.09100
H1405       H  0.27977677  0.99876428  0.83204827     0.09100
H1406       H  0.50284397  0.13304549  0.94520757     0.09100
H1407       H  0.45550860  0.10938854  0.94073743     0.09100
H1408       H  0.47005061  0.14765690  0.91454996     0.05900
C1409       C  0.49418360  0.08367400  0.59103221    -0.19900
C1410       C  0.51770193  0.05223006  0.58160967    -0.06500
C1411       C  0.29362632  0.03384248  0.60452774     0.14400
C1412       C  0.28773292  0.04127453  0.63613447    -0.20000
C1413       C  0.50916987  0.06987526  0.64542051    -0.06500
C1414       C  0.49051225  0.09327948  0.62233989     0.14300
C1415       C  0.46807785  0.12956505  0.63041687    -0.23300
H1416       H  0.47821078  0.10078919  0.57369520     0.15600
H1417       H  0.30320412  0.02390718  0.65351264     0.15700
C1418       C  0.32200269  0.00180470  0.59610372    -0.23300
H1419       H  0.45890332  0.14635772  0.60946416     0.05900
H1420       H  0.48654943  0.14931691  0.64485467     0.09100
H1421       H  0.44149425  0.12088560  0.64283760     0.09100
H1422       H  0.34580845  0.01458231  0.58211595     0.09100
H1423       H  0.30686617  0.97838596  0.58287825     0.09100
H1424       H  0.33566690  0.98766344  0.61685151     0.05900
C1425       C  0.37627949  0.33688958  0.90825212    -0.19900
C1426       C  0.35324844  0.30521509  0.91820072    -0.06500
C1427       C  0.33524548  0.28082066  0.89545557     0.14400
C1428       C  0.34254173  0.28770694  0.86394477    -0.20000
C1429       C  0.36701714  0.31843850  0.85427415    -0.06500
C1430       C  0.38288256  0.34401393  0.87683772     0.14300
C1431       C  0.40558269  0.37991362  0.86799035    -0.23300
H1432       H  0.38997882  0.35582362  0.92530197     0.15600
H1433       H  0.32882476  0.26924723  0.84658752     0.15700
C1434       C  0.30840266  0.24745161  0.90391762    -0.23300
H1435       H  0.41296152  0.39817812  0.88835939     0.05900
H1436       H  0.38805338  0.39844676  0.85163636     0.09100
H1437       H  0.43326765  0.37053911  0.85753704     0.09100
H1438       H  0.28380181  0.25938393  0.91724342     0.05700
H1439       H  0.32432306  0.22496848  0.91789767     0.09100
H1440       H  0.29601347  0.23249898  0.88324004     0.05900
C1441       C  0.37089004  0.34220666  0.58875774    -0.19900
C1442       C  0.35006990  0.30872386  0.57907977    -0.06500
C1443       C  0.33220690  0.28475046  0.60198419     0.14400
C1444       C  0.33900360  0.29269397  0.63346875    -0.20000
C1445       C  0.36214706  0.32457337  0.64295723    -0.06500
C1446       C  0.37601986  0.35093472  0.62023870     0.14300
C1447       C  0.39555308  0.38873748  0.62908755    -0.23300
H1448       H  0.38400163  0.36120323  0.57159155     0.15600
H1449       H  0.32633271  0.27384561  0.65093285     0.15700
C1450       C  0.30616012  0.25054924  0.59374151    -0.23300
H1451       H  0.42381722  0.38164770  0.64044540     0.05900
H1452       H  0.37674705  0.40568454  0.64488212     0.09100
H1453       H  0.40115237  0.40757823  0.60860009     0.09100
H1454       H  0.32263871  0.22786111  0.58126074     0.09100
H1455       H  0.28164568  0.26144688  0.57896522     0.09100
H1456       H  0.29368023  0.23615220  0.61447526     0.05900
C1457       C  0.38028489  0.15720135  0.91354551    -0.19900
C1458       C  0.40156029  0.19038767  0.92332402    -0.06500
C1459       C  0.42093451  0.21329033  0.90051005     0.14400
C1460       C  0.41559052  0.20435526  0.86895461    -0.20000
C1461       C  0.39202491  0.17280194  0.85926377    -0.06500
C1462       C  0.37624988  0.14767467  0.88208188     0.14300
C1463       C  0.35569299  0.11032946  0.87343951    -0.23300
H1464       H  0.36591098  0.13904629  0.93061355     0.15600
H1465       H  0.42945659  0.22241772  0.85158587     0.15700
C1466       C  0.44686395  0.24759834  0.90887483    -0.23300
H1467       H  0.34872782  0.09228042  0.89408298     0.05900
H1468       H  0.37440380  0.09226892  0.85833981     0.09100
H1469       H  0.32802251  0.11805959  0.86143693     0.09100
H1470       H  0.47096106  0.23713915  0.92434244     0.09100
H1471       H  0.42988617  0.27069509  0.92055633     0.09100
H1472       H  0.46013156  0.26141581  0.88823586     0.05900
C1473       C  0.40965887  0.21068393  0.63737208    -0.19900
C1474       C  0.38534702  0.17989490  0.64714485    -0.06500
C1475       C  0.36912979  0.15450487  0.62462115     0.14400
C1476       C  0.37497247  0.16200485  0.59316008    -0.20000
C1477       C  0.39781833  0.19375155  0.58312648    -0.06500
C1478       C  0.41640873  0.21784220  0.60581287     0.14300
C1479       C  0.44321731  0.25126953  0.59729272    -0.23300
H1480       H  0.42369390  0.22897747  0.65469358     0.15600
H1481       H  0.36087620  0.14326896  0.57614749     0.15700
C1482       C  0.34691891  0.11839318  0.63355179    -0.23300
H1483       H  0.45569454  0.26614780  0.61797207     0.05900
H1484       H  0.42715545  0.27383621  0.58349723     0.09100
H1485       H  0.46786712  0.23957766  0.58384801     0.09100
H1486       H  0.31943901  0.12755106  0.64440806     0.09100
H1487       H  0.36492655  0.09982763  0.64956231     0.09100
H1488       H  0.33927693  0.10030990  0.61314975     0.05900
O1489       O  0.36220802  0.69817137  0.46797418    -0.72600
O1490       O  0.32763230  0.77611368  0.03232851    -0.73600
O1491       O  0.32952041  0.77201332  0.46489441    -0.62200
O1492       O  0.36216146  0.70313351  0.03617351    -0.70600
O1493       O  0.42044133  0.73138365  0.03788242    -0.70100
O1494       O  0.38847764  0.79884586  0.46636892    -0.61400
O1495       O  0.38606902  0.80413400  0.03297616    -0.73900
O1496       O  0.42118916  0.72496855  0.46840210    -0.72700
Cu1497     Cu  0.34386164  0.73663266  0.00022196     1.04600
Cu1498     Cu  0.40634244  0.76384334  0.50138842     1.04300
C1499       C  0.39527267  0.70333711  0.45527494     0.93600
C1500       C  0.35303749  0.79827101  0.04552822     0.92800
C1501       C  0.35603870  0.79275568  0.45211262     0.84900
C1502       C  0.39429045  0.71017522  0.05066036     0.91200
O1503       O  0.29552889  0.52859582  0.46722468    -0.72600
O1504       O  0.27057515  0.94981521  0.03270303    -0.73600
O1505       O  0.26855802  0.95403628  0.46428122    -0.62200
O1506       O  0.29831694  0.52812788  0.03506402    -0.70600
O1507       O  0.48250583  0.54826773  0.03467054    -0.70100
O1508       O  0.45318351  0.97064965  0.46400706    -0.61400
O1509       O  0.45497921  0.97021633  0.03325504    -0.73900
O1510       O  0.48110394  0.54485321  0.46729851    -0.72700
Cu1511     Cu  0.28644903  0.49142350  0.99985365     1.04600
Cu1512     Cu  0.46666655  0.51243493  0.99980105     1.04300
C1513       C  0.51441175  0.54218263  0.45456394     0.93600
C1514       C  0.48259790  0.95029409  0.04625685     0.92800
C1515       C  0.48093155  0.95203994  0.45108100     0.84900
C1516       C  0.51580489  0.54456125  0.04832022     0.91200
C1517       C  0.46879303  0.62042964  0.25190269     0.30400
C1518       C  0.29849163  0.62393303  0.25151975     0.30400
C1519       C  0.48820693  0.60168710  0.22358159    -0.05800
C1520       C  0.48685213  0.66239289  0.25237668    -0.06600
C1521       C  0.49012537  0.59967948  0.27920042    -0.06500
C1522       C  0.27952244  0.60313922  0.22357939    -0.05800
C1523       C  0.27738724  0.66445858  0.25134274    -0.06600
C1524       C  0.27965845  0.60194806  0.27860314    -0.06500
C1525       C  0.29252824  0.58844099  0.19611832    -0.31900
N1526       N  0.50900559  0.57964629  0.17816670     0.14600
C1527       C  0.47664207  0.58635504  0.19527398    -0.31900
H1528       H  0.44686756  0.58206239  0.18726903     0.16600
C1529       C  0.28708089  0.70434035  0.25072658    -0.30900
N1530       N  0.50348146  0.72628564  0.25112842     0.13300
C1531       C  0.47279980  0.70083295  0.25207637    -0.30800
C1532       C  0.29268252  0.58607951  0.30620011    -0.31100
N1533       N  0.51359959  0.57487319  0.32379218     0.13900
H1534       H  0.32277310  0.58415688  0.31396732     0.16500
C1535       C  0.48031865  0.58286248  0.30724211    -0.31100
H1536       H  0.45106542  0.57924337  0.31597841     0.16500
H1537       H  0.44243227  0.70948561  0.25209363     0.16500
H1538       H  0.32253534  0.58624319  0.18932436     0.16600
H1539       H  0.31643638  0.71619565  0.25067024     0.16500
C1540       C  0.28512808  0.87405316  0.24913639     0.30400
C1541       C  0.45527254  0.87050146  0.24902672     0.30400
C1542       C  0.26450452  0.89451342  0.22124450    -0.05800
C1543       C  0.26711724  0.83212953  0.24862099    -0.06600
C1544       C  0.26497732  0.89305522  0.27703250    -0.06500
C1545       C  0.47328202  0.89299445  0.22178026    -0.05800
C1546       C  0.47656550  0.83011800  0.24860417    -0.06600
C1547       C  0.47466972  0.89112823  0.27677014    -0.06500
C1548       C  0.45937362  0.90992240  0.19479923    -0.31900
N1549       N  0.48995178  0.92046694  0.17710572     0.14600
C1550       C  0.27484898  0.91094184  0.19307752    -0.31900
H1551       H  0.30418130  0.91460877  0.18464185     0.16600
C1552       C  0.46700000  0.79020287  0.24943877    -0.30900
N1553       N  0.50064378  0.76828741  0.24973938     0.13300
C1554       C  0.28126973  0.79375219  0.24893216    -0.30800
C1555       C  0.46190257  0.90681631  0.30394370    -0.31100
N1556       N  0.49324842  0.91646239  0.32181915     0.13900
H1557       H  0.43196448  0.90922686  0.31088647     0.16500
C1558       C  0.27568604  0.90910629  0.30532417    -0.31100
H1559       H  0.30526401  0.91358267  0.31380568     0.16500
H1560       H  0.31169226  0.78510994  0.24938358     0.16500
H1561       H  0.42903505  0.91187656  0.18767591     0.16600
H1562       H  0.43771839  0.77830499  0.25017190     0.16500
C1563       C  0.33030456  0.87400219  0.24929897     0.30400
C1564       C  0.41000189  0.87040602  0.24909666     0.30400
C1565       C  0.34827647  0.85367689  0.22131582    -0.05800
C1566       C  0.35146981  0.91440910  0.25003255    -0.06600
C1567       C  0.34966554  0.85150183  0.27646021    -0.06500
C1568       C  0.38879849  0.85201277  0.22073172    -0.05800
C1569       C  0.39198771  0.91234346  0.24989847    -0.06600
C1570       C  0.39020269  0.84967371  0.27678921    -0.06500
C1571       C  0.39824927  0.83882259  0.19145644    -0.31900
N1572       N  0.36457276  0.83297296  0.17479030     0.14600
C1573       C  0.33415147  0.84040758  0.19331703    -0.31900
H1574       H  0.30382530  0.83875256  0.18595977     0.16600
C1575       C  0.40608796  0.95069358  0.25057693    -0.30900
N1576       N  0.37543063  0.97617057  0.25118035     0.13300
C1577       C  0.34181495  0.95428948  0.25086552    -0.30800
C1578       C  0.40117601  0.83393176  0.30541623    -0.31100
N1579       N  0.36840091  0.82672805  0.32206219     0.13900
H1580       H  0.43074710  0.83016616  0.31408843     0.16500
C1581       C  0.33699099  0.83611586  0.30400405    -0.31100
H1582       H  0.30707339  0.83433926  0.31126818     0.16500
H1583       H  0.31247960  0.96620916  0.25116115     0.16500
H1584       H  0.42729866  0.83580433  0.18242401     0.16600
H1585       H  0.43648824  0.95931809  0.25056123     0.16500
C1586       C  0.34382577  0.62387886  0.25212214     0.30400
C1587       C  0.42358481  0.62031011  0.25221808     0.30400
C1588       C  0.36486313  0.64226959  0.28057285    -0.05800
C1589       C  0.36185157  0.58195153  0.25146211    -0.06600
C1590       C  0.36375748  0.64469256  0.22467639    -0.06500
C1591       C  0.40545624  0.64040151  0.28034186    -0.05800
C1592       C  0.40240832  0.57985965  0.25147375    -0.06600
C1593       C  0.40422302  0.64291075  0.22502250    -0.06500
C1594       C  0.41916234  0.65362237  0.30857429    -0.31900
N1595       N  0.38833220  0.66190199  0.32659773     0.14600
C1596       C  0.35498979  0.65622206  0.30948433    -0.31900
H1597       H  0.32572361  0.66020055  0.31792158     0.16600
C1598       C  0.41201476  0.53993082  0.25123298    -0.30900
N1599       N  0.37834821  0.51811179  0.25106210     0.13300
C1600       C  0.34770946  0.54363147  0.25124090    -0.30800
C1601       C  0.41679154  0.65987249  0.19793266    -0.31100
N1602       N  0.38531614  0.67023095  0.18023895     0.13900
H1603       H  0.44679335  0.66243507  0.19076283     0.16500
C1604       C  0.35267022  0.66203291  0.19670424    -0.31100
H1605       H  0.32304549  0.66647076  0.18833400     0.16500
H1606       H  0.31728898  0.53506499  0.25128565     0.16500
H1607       H  0.44930219  0.65498838  0.31625944     0.16600
H1608       H  0.44131879  0.52795145  0.25129411     0.16500
C1609       C  0.25423270  0.91203585  0.40867515    -0.19900
C1610       C  0.47782340  0.93982321  0.41806816    -0.06500
C1611       C  0.45907272  0.96364877  0.39493310     0.14400
C1612       C  0.46621796  0.95649912  0.36349999    -0.20000
C1613       C  0.49061917  0.92562019  0.35427873    -0.06500
C1614       C  0.25826339  0.90255141  0.37736432     0.14300
C1615       C  0.28044658  0.86606036  0.36942602    -0.23300
H1616       H  0.26985411  0.89473632  0.42607098     0.15600
H1617       H  0.45224283  0.97474687  0.34582863     0.15700
C1618       C  0.43143398  0.99656992  0.40282386    -0.23300
H1619       H  0.28891055  0.84894616  0.39040289     0.05900
H1620       H  0.30745294  0.87457093  0.35752302     0.09100
H1621       H  0.26208359  0.84668093  0.35457953     0.09100
H1622       H  0.44660399  0.01904971  0.41693304     0.09100
H1623       H  0.40637759  0.98443011  0.41573242     0.09100
H1624       H  0.41953240  0.01172878  0.38183680     0.05900
C1625       C  0.46127232  0.96402750  0.09952950    -0.19900
C1626       C  0.47919645  0.93759211  0.07916065    -0.06500
C1627       C  0.25289836  0.90532935  0.09053040     0.14400
C1628       C  0.25615507  0.89986257  0.12279557    -0.20000
C1629       C  0.48702432  0.92775607  0.14425468    -0.06500
C1630       C  0.46466260  0.95934338  0.13179449     0.14300
C1631       C  0.44519724  0.98869361  0.15245968    -0.23300
H1632       H  0.44585821  0.98953830  0.09021440     0.15600
H1633       H  0.27108577  0.87404640  0.13212279     0.15700
C1634       C  0.26886474  0.87437084  0.06955757    -0.23300
H1635       H  0.43169648  0.01341404  0.13903108     0.05900
H1636       H  0.46701314  0.00124952  0.16884944     0.09100
H1637       H  0.42167811  0.97415763  0.16563428     0.09100
H1638       H  0.29453711  0.88589526  0.05709012     0.09100
H1639       H  0.24588081  0.86516752  0.05270944     0.09100
H1640       H  0.27794435  0.84775162  0.08282230     0.05900
C1641       C  0.28855107  0.53382195  0.40139666    -0.19900
C1642       C  0.51884355  0.55567880  0.42187286    -0.06500
C1643       C  0.49758492  0.58778789  0.40886405     0.14400
C1644       C  0.49629405  0.59322016  0.37659114    -0.20000
C1645       C  0.51565101  0.56746130  0.35670619    -0.06500
C1646       C  0.28490345  0.53779536  0.36917143     0.14300
C1647       C  0.30294423  0.50723220  0.34876255    -0.23300
H1648       H  0.30302314  0.50784588  0.41093544     0.15600
H1649       H  0.48000865  0.61782684  0.36666827     0.15700
C1650       C  0.47651978  0.61673096  0.42878372    -0.23300
H1651       H  0.31532747  0.48211176  0.36239400     0.05900
H1652       H  0.32700788  0.52046569  0.33540531     0.09100
H1653       H  0.28053598  0.49547267  0.33248325     0.09100
H1654       H  0.49680513  0.62835388  0.44677712     0.09100
H1655       H  0.45109788  0.60241143  0.43977009     0.09100
H1656       H  0.46549771  0.64218452  0.41496224     0.05900
C1657       C  0.49609421  0.58771527  0.09152153    -0.19900
C1658       C  0.51979160  0.55688374  0.08127143    -0.06500
C1659       C  0.29501518  0.53537447  0.10363047     0.14400
C1660       C  0.28866651  0.54197896  0.13519331    -0.20000
C1661       C  0.51057570  0.57104116  0.14552140    -0.06500
C1662       C  0.49219150  0.59567833  0.12308716     0.14300
C1663       C  0.46975618  0.63151303  0.13215733    -0.23300
H1664       H  0.48022985  0.60560525  0.07466719     0.15600
H1665       H  0.30330743  0.52366420  0.15246546     0.15700
C1666       C  0.32294568  0.50300504  0.09502479    -0.23300
H1667       H  0.46049865  0.64931578  0.11173234     0.05900
H1668       H  0.48825750  0.65055412  0.14716122     0.09100
H1669       H  0.44321370  0.62208505  0.14428600     0.09100
H1670       H  0.34717058  0.51562418  0.08140494     0.09100
H1671       H  0.30759693  0.48011392  0.08142481     0.09100
H1672       H  0.33609711  0.48819117  0.11568570     0.05900
C1673       C  0.37549746  0.83658999  0.40876040    -0.19900
C1674       C  0.35273796  0.80477315  0.41887671    -0.06500
C1675       C  0.33452085  0.78043796  0.39619787     0.14400
C1676       C  0.34150412  0.78729916  0.36462468    -0.20000
C1677       C  0.36579613  0.81807172  0.35475883    -0.06500
C1678       C  0.38159898  0.84382940  0.37723523     0.14300
C1679       C  0.40380902  0.87991934  0.36814423    -0.23300
H1680       H  0.38935545  0.85551882  0.42572622     0.15600
H1681       H  0.32770365  0.76876635  0.34738315     0.15700
C1682       C  0.30768667  0.74715801  0.40480594    -0.23300
H1683       H  0.41116329  0.89833252  0.38843048     0.05900
H1684       H  0.38597999  0.89819193  0.35181302     0.09100
H1685       H  0.43142075  0.87072051  0.35751462     0.09100
H1686       H  0.28347798  0.75918611  0.41849722     0.05700
H1687       H  0.32372746  0.72449022  0.41849601     0.09100
H1688       H  0.29479163  0.73244981  0.38421542     0.05900
C1689       C  0.36865073  0.84496248  0.08813385    -0.19900
C1690       C  0.34794008  0.81162167  0.07798241    -0.06500
C1691       C  0.32997430  0.78718719  0.10053621     0.14400
C1692       C  0.33680970  0.79436553  0.13210533    -0.20000
C1693       C  0.36011814  0.82586766  0.14206248    -0.06500
C1694       C  0.37392530  0.85286184  0.11974027     0.14300
C1695       C  0.39377792  0.89029101  0.12913146    -0.23300
H1696       H  0.38176265  0.86440249  0.07121138     0.15600
H1697       H  0.32410785  0.77508580  0.14931414     0.15700
C1698       C  0.30371194  0.75332294  0.09184193    -0.23300
H1699       H  0.42209588  0.88264372  0.14015385     0.05900
H1700       H  0.37523739  0.90688067  0.14534442     0.09100
H1701       H  0.39939837  0.90971619  0.10895410     0.09100
H1702       H  0.32018333  0.73055999  0.07942870     0.09100
H1703       H  0.27944940  0.76458910  0.07693901     0.09100
H1704       H  0.29080329  0.73885908  0.11237462     0.05900
C1705       C  0.37914931  0.65573103  0.41337163    -0.19900
C1706       C  0.40040865  0.68895703  0.42304899    -0.06500
C1707       C  0.41979543  0.71184023  0.40024581     0.14400
C1708       C  0.41486525  0.70255115  0.36877822    -0.20000
C1709       C  0.39165910  0.67075090  0.35918450    -0.06500
C1710       C  0.37545839  0.64590415  0.38198020     0.14300
C1711       C  0.35477933  0.60861348  0.37338015    -0.23300
H1712       H  0.36461049  0.63770043  0.43048788     0.15600
H1713       H  0.42881411  0.72053202  0.35135461     0.15700
C1714       C  0.44518764  0.74658987  0.40850258    -0.23300
H1715       H  0.34723940  0.59089395  0.39406836     0.05900
H1716       H  0.37363745  0.59020753  0.35865876     0.09100
H1717       H  0.32740344  0.61644206  0.36098361     0.09100
H1718       H  0.46935414  0.73661243  0.42406206     0.09100
H1719       H  0.42782536  0.76949739  0.42004552     0.09100
H1720       H  0.45832322  0.76049215  0.38783598     0.05900
C1721       C  0.41038470  0.71266443  0.13848879    -0.19900
C1722       C  0.38732031  0.68061914  0.14778889    -0.06500
C1723       C  0.37131351  0.65581368  0.12475766     0.14400
C1724       C  0.37629421  0.66483253  0.09339817    -0.20000
C1725       C  0.39796892  0.69766205  0.08383075    -0.06500
C1726       C  0.41598706  0.72155715  0.10695520     0.14300
C1727       C  0.44073381  0.75673579  0.09888700    -0.23300
H1728       H  0.42408857  0.73074178  0.15609791     0.15600
H1729       H  0.36249493  0.64631109  0.07610275     0.15700
C1730       C  0.35004475  0.61882312  0.13303276    -0.23300
H1731       H  0.45270207  0.77161018  0.11975756     0.05900
H1732       H  0.42323677  0.77872954  0.08562820     0.09100
H1733       H  0.46566022  0.74693953  0.08493121     0.09100
H1734       H  0.32252672  0.62695928  0.14427639     0.09100
H1735       H  0.36854114  0.60011069  0.14857540     0.09100
H1736       H  0.34254119  0.60128151  0.11229681     0.05900
O1737       O  0.36394990  0.69897415  0.96847589    -0.72600
O1738       O  0.32847356  0.77395345  0.53348748    -0.73600
O1739       O  0.32961414  0.77181547  0.96388107    -0.62200
O1740       O  0.36152620  0.70030213  0.53551560    -0.70600
O1741       O  0.42041360  0.72731228  0.53690521    -0.70100
O1742       O  0.38790949  0.80009281  0.96570589    -0.61400
O1743       O  0.38742096  0.80088075  0.53384125    -0.73900
O1744       O  0.42227393  0.72715073  0.96893649    -0.72700
Cu1745     Cu  0.34341868  0.73527882  0.50045208     1.04600
Cu1746     Cu  0.40613855  0.76655794  0.00138521     1.04300
C1747       C  0.39692198  0.70483420  0.95577343     0.93600
C1748       C  0.35447553  0.79540789  0.54665864     0.92800
C1749       C  0.35591092  0.79286110  0.95115704     0.84900
C1750       C  0.39403651  0.70646983  0.54970203     0.91200
O1751       O  0.29744290  0.53222452  0.96704346    -0.72600
O1752       O  0.26972335  0.94913595  0.53217511    -0.73600
O1753       O  0.27050796  0.95386427  0.96488308    -0.62200
O1754       O  0.29621316  0.52403877  0.53560853    -0.70600
O1755       O  0.48086498  0.54111315  0.53517150    -0.70100
O1756       O  0.45499982  0.97302627  0.96449429    -0.61400
O1757       O  0.45311569  0.96643992  0.53292272    -0.73900
O1758       O  0.48201628  0.55114480  0.96667627    -0.72700
Cu1759     Cu  0.28347758  0.48792801  0.49986283     1.04600
Cu1760     Cu  0.46507524  0.50578411  0.50001601     1.04300
C1761       C  0.51510987  0.54822891  0.95366397     0.93600
C1762       C  0.48083309  0.94650811  0.54584192     0.92800
C1763       C  0.48254721  0.95391903  0.95172317     0.84900
C1764       C  0.51405527  0.53743757  0.54897522     0.91200
C1765       C  0.46766000  0.62246824  0.75090988     0.30400
C1766       C  0.29750894  0.62605014  0.75148765     0.30400
C1767       C  0.48703667  0.60352720  0.72260357    -0.05800
C1768       C  0.48598020  0.66427330  0.75143181    -0.06600
C1769       C  0.48866557  0.60148410  0.77812808    -0.06500
C1770       C  0.27851659  0.60489170  0.72368455    -0.05800
C1771       C  0.27640223  0.66652903  0.75108427    -0.06600
C1772       C  0.27875114  0.60447060  0.77864239    -0.06500
C1773       C  0.29152828  0.58924520  0.69651244    -0.31900
N1774       N  0.50798713  0.57976841  0.67771667     0.14600
C1775       C  0.47555861  0.58726016  0.69459043    -0.31900
H1776       H  0.44578971  0.58250218  0.68673027     0.16600
C1777       C  0.28629511  0.70630753  0.75055585    -0.30900
N1778       N  0.50315990  0.72800178  0.75076053     0.13300
C1779       C  0.47223577  0.70281493  0.75131727    -0.30800
C1780       C  0.29212770  0.58911048  0.80621276    -0.31100
N1781       N  0.51151589  0.57635440  0.82261036     0.13900
H1782       H  0.32226586  0.58744947  0.81375033     0.16500
C1783       C  0.47841705  0.58458400  0.80598677    -0.31100
H1784       H  0.44914872  0.58123127  0.81458976     0.16500
H1785       H  0.44193493  0.71170821  0.75128361     0.16500
H1786       H  0.32165730  0.58667729  0.68985025     0.16600
H1787       H  0.31566226  0.71797578  0.75064239     0.16500
C1788       C  0.28592592  0.87575728  0.74922854     0.30400
C1789       C  0.45599257  0.87240291  0.74936784     0.30400
C1790       C  0.26540695  0.89651103  0.72151015    -0.05800
C1791       C  0.26755860  0.83403641  0.74864316    -0.06600
C1792       C  0.26610854  0.89478939  0.77719514    -0.06500
C1793       C  0.47409445  0.89476539  0.72219624    -0.05800
C1794       C  0.47712321  0.83196422  0.74894404    -0.06600
C1795       C  0.47540778  0.89289558  0.77713865    -0.06500
C1796       C  0.46013927  0.91087327  0.69497799    -0.31900
N1797       N  0.49067134  0.92089774  0.67709280     0.14600
C1798       C  0.27596303  0.91252826  0.69331644    -0.31900
H1799       H  0.30536690  0.91558751  0.68480238     0.16600
C1800       C  0.46725116  0.79216199  0.74958600    -0.30900
N1801       N  0.50072266  0.77002450  0.74978748     0.13300
C1802       C  0.28130168  0.79554031  0.74885598    -0.30800
C1803       C  0.46261839  0.90807637  0.80445163    -0.31100
N1804       N  0.49390659  0.91701936  0.82260621     0.13900
H1805       H  0.43254055  0.91053332  0.81131649     0.16500
C1806       C  0.27725508  0.91040650  0.80548502    -0.31100
H1807       H  0.30695914  0.91460606  0.81379659     0.16500
H1808       H  0.31159788  0.78662579  0.74922087     0.16500
H1809       H  0.42984210  0.91232089  0.68778069     0.16600
H1810       H  0.43788966  0.78048699  0.75017573     0.16500
C1811       C  0.33104263  0.87564740  0.74932865     0.30400
C1812       C  0.41072564  0.87239493  0.74926463     0.30400
C1813       C  0.34911740  0.85529589  0.72143828    -0.05800
C1814       C  0.35199482  0.91613320  0.74995514    -0.06600
C1815       C  0.35044310  0.85325987  0.77650194    -0.06500
C1816       C  0.38965368  0.85368459  0.72098903    -0.05800
C1817       C  0.39252277  0.91432511  0.74992019    -0.06600
C1818       C  0.39096631  0.85157761  0.77683592    -0.06500
C1819       C  0.39927409  0.83919287  0.69218119    -0.31900
N1820       N  0.36568566  0.83268280  0.67557219     0.14600
C1821       C  0.33511883  0.84103908  0.69372188    -0.31900
H1822       H  0.30481655  0.83926791  0.68628820     0.16600
C1823       C  0.40627273  0.95285593  0.75030425    -0.30900
N1824       N  0.37534086  0.97810449  0.75058866     0.13300
C1825       C  0.34194961  0.95592431  0.75037827    -0.30800
C1826       C  0.40202452  0.83459740  0.80493572    -0.31100
N1827       N  0.36929299  0.82662637  0.82137369     0.13900
H1828       H  0.43165954  0.83045639  0.81346949     0.16500
C1829       C  0.33782282  0.83670087  0.80362280    -0.31100
H1830       H  0.30787447  0.83453565  0.81087536     0.16500
H1831       H  0.31253655  0.96757467  0.75043378     0.16500
H1832       H  0.42839435  0.83569105  0.68337568     0.16600
H1833       H  0.43658716  0.96171571  0.75031034     0.16500
C1834       C  0.34287410  0.62603017  0.75224862     0.30400
C1835       C  0.42255957  0.62260341  0.75169842     0.30400
C1836       C  0.36427997  0.64471236  0.78062728    -0.05800
C1837       C  0.36099470  0.58404035  0.75165125    -0.06600
C1838       C  0.36248407  0.64666822  0.72454685    -0.06500
C1839       C  0.40487546  0.64294804  0.77995173    -0.05800
C1840       C  0.40151508  0.58216883  0.75129048    -0.06600
C1841       C  0.40292598  0.64491966  0.72463911    -0.06500
C1842       C  0.41915199  0.65625715  0.80803403    -0.31900
N1843       N  0.38879932  0.66438987  0.82657499     0.14600
C1844       C  0.35509491  0.65853031  0.80985129    -0.31900
H1845       H  0.32602351  0.66215554  0.81880631     0.16600
C1846       C  0.41151998  0.54237219  0.75090769    -0.30900
N1847       N  0.37812214  0.52021397  0.75107762     0.13300
C1848       C  0.34720913  0.54549254  0.75157510    -0.30800
C1849       C  0.41531054  0.66074400  0.69714687    -0.31100
N1850       N  0.38370067  0.67051486  0.67946431     0.13900
H1851       H  0.44512388  0.66262936  0.68962062     0.16500
C1852       C  0.35116108  0.66298197  0.69624305    -0.31100
H1853       H  0.32144122  0.66701808  0.68784313     0.16500
H1854       H  0.31690751  0.53664671  0.75191269     0.16500
H1855       H  0.44955573  0.65761182  0.81532763     0.16600
H1856       H  0.44088809  0.53072040  0.75058346     0.16500
C1857       C  0.25691105  0.91277946  0.90891385    -0.19900
C1858       C  0.47903082  0.94092739  0.91890483    -0.06500
C1859       C  0.45963275  0.96414310  0.89573906     0.14400
C1860       C  0.46644732  0.95668236  0.86431954    -0.20000
C1861       C  0.49110685  0.92601895  0.85510524    -0.06500
C1862       C  0.26086148  0.90357748  0.87755476     0.14300
C1863       C  0.28324025  0.86731037  0.86934601    -0.23300
H1864       H  0.27277432  0.89548794  0.92619189     0.15600
H1865       H  0.45216359  0.97466529  0.84664211     0.15700
C1866       C  0.43181184  0.99693877  0.90357208    -0.23300
H1867       H  0.29196954  0.85011148  0.89020709     0.05900
H1868       H  0.31008698  0.87607094  0.85731539     0.09100
H1869       H  0.26488165  0.84790202  0.85453412     0.09100
H1870       H  0.44702024  0.01989443  0.91719631     0.09100
H1871       H  0.40714655  0.98479502  0.91694051     0.09100
H1872       H  0.41933107  0.01154256  0.88256245     0.05900
C1873       C  0.46015655  0.96137209  0.59899718    -0.19900
C1874       C  0.47806089  0.93452568  0.57895753    -0.06500
C1875       C  0.25432933  0.90603251  0.59100080     0.14400
C1876       C  0.25787438  0.90128221  0.62330071    -0.20000
C1877       C  0.48747585  0.92720444  0.64414575    -0.06500
C1878       C  0.46434086  0.95796003  0.63128180     0.14300
C1879       C  0.44478019  0.98775863  0.65151662    -0.23300
H1880       H  0.44404576  0.98629748  0.58934934     0.15600
H1881       H  0.27323876  0.87584935  0.63289279     0.15700
C1882       C  0.27111741  0.87506981  0.57040640    -0.23300
H1883       H  0.43093823  0.01194953  0.63771284     0.05900
H1884       H  0.46659311  0.00101404  0.66755427     0.09100
H1885       H  0.42148527  0.97345641  0.66507536     0.09100
H1886       H  0.29618559  0.88716229  0.55751077     0.09100
H1887       H  0.24825332  0.86456723  0.55394775     0.09100
H1888       H  0.28148652  0.84917496  0.58401794     0.05900
C1889       C  0.29025538  0.53798705  0.90148528    -0.19900
C1890       C  0.51863339  0.56018755  0.92063774    -0.06500
C1891       C  0.49814425  0.59260833  0.90742541     0.14400
C1892       C  0.49558677  0.59671779  0.87510342    -0.20000
C1893       C  0.51340767  0.56954532  0.85548738    -0.06500
C1894       C  0.28639081  0.54193849  0.86931467     0.14300
C1895       C  0.30553805  0.51205379  0.84890441    -0.23300
H1896       H  0.30573121  0.51253851  0.91095709     0.15600
H1897       H  0.47996961  0.62163462  0.86494436     0.15700
C1898       C  0.47980457  0.62349300  0.92721763    -0.23300
H1899       H  0.31842331  0.48717929  0.86252402     0.05900
H1900       H  0.32951625  0.52598371  0.83587428     0.09100
H1901       H  0.28372026  0.49978704  0.83238120     0.09100
H1902       H  0.50171513  0.63486356  0.94408999     0.09100
H1903       H  0.45447240  0.61103010  0.93957130     0.09100
H1904       H  0.46937157  0.64885286  0.91302404     0.05900
C1905       C  0.49422318  0.58258072  0.59092603    -0.19900
C1906       C  0.51815217  0.55141207  0.58156550    -0.06500
C1907       C  0.29362271  0.53330872  0.60443705     0.14400
C1908       C  0.28785627  0.54104857  0.63600949    -0.20000
C1909       C  0.50966795  0.56947235  0.64534226    -0.06500
C1910       C  0.49056909  0.59241438  0.62218985     0.14300
C1911       C  0.46767338  0.62848195  0.63010897    -0.23300
H1912       H  0.47789613  0.59931627  0.57356188     0.15600
H1913       H  0.30275823  0.52332119  0.65345486     0.15700
C1914       C  0.32094224  0.50026618  0.59617238    -0.23300
H1915       H  0.45812585  0.64495366  0.60909211     0.05900
H1916       H  0.48596501  0.64862924  0.64434005     0.09100
H1917       H  0.44127125  0.61959944  0.64267924     0.09100
H1918       H  0.34520189  0.51212162  0.58219706     0.09100
H1919       H  0.30506168  0.47729676  0.58298992     0.09100
H1920       H  0.33405090  0.48576908  0.61698738     0.05900
C1921       C  0.37551221  0.83627363  0.90787385    -0.19900
C1922       C  0.35302300  0.80420927  0.91783057    -0.06500
C1923       C  0.33573037  0.77926853  0.89509719     0.14400
C1924       C  0.34298743  0.78625056  0.86358683    -0.20000
C1925       C  0.36684634  0.81748127  0.85393491    -0.06500
C1926       C  0.38218278  0.84337590  0.87648146     0.14300
C1927       C  0.40441912  0.87956022  0.86759995    -0.23300
H1928       H  0.38875394  0.85555398  0.92491370     0.15600
H1929       H  0.32973952  0.76746065  0.84621676     0.15700
C1930       C  0.30974642  0.74518898  0.90355516    -0.23300
H1931       H  0.41154102  0.89800325  0.88792767     0.05900
H1932       H  0.38671953  0.89780163  0.85116388     0.09100
H1933       H  0.43221237  0.87045076  0.85719168     0.09100
H1934       H  0.28465953  0.75643717  0.91664866     0.05700
H1935       H  0.32611426  0.72329949  0.91777572     0.09100
H1936       H  0.29806354  0.72969082  0.88287599     0.05900
C1937       C  0.37052119  0.84234264  0.58889905    -0.19900
C1938       C  0.34985716  0.80882728  0.57913160    -0.06500
C1939       C  0.33199842  0.78468256  0.60193988     0.14400
C1940       C  0.33863943  0.79256476  0.63344078    -0.20000
C1941       C  0.36158468  0.82452944  0.64300703    -0.06500
C1942       C  0.37544186  0.85101056  0.62037963     0.14300
C1943       C  0.39478643  0.88885103  0.62932755    -0.23300
H1944       H  0.38359429  0.86148232  0.57178509     0.15600
H1945       H  0.32596866  0.77361515  0.65086762     0.15700
C1946       C  0.30602509  0.75046566  0.59358369    -0.23300
H1947       H  0.42309914  0.88177248  0.64059914     0.05900
H1948       H  0.37593793  0.90561997  0.64520318     0.09100
H1949       H  0.40026069  0.90783214  0.60889542     0.09100
H1950       H  0.32253951  0.72789679  0.58101379     0.09100
H1951       H  0.28145066  0.76137766  0.57887676     0.09100
H1952       H  0.29360927  0.73590300  0.61427736     0.05900
C1953       C  0.38188065  0.65686038  0.91364959    -0.19900
C1954       C  0.40233134  0.69059785  0.92340335    -0.06500
C1955       C  0.42104283  0.71397435  0.90051114     0.14400
C1956       C  0.41567629  0.70501365  0.86894060    -0.20000
C1957       C  0.39290825  0.67284552  0.85929344    -0.06500
C1958       C  0.37808671  0.64718744  0.88217210     0.14300
C1959       C  0.35891985  0.60909319  0.87353302    -0.23300
H1960       H  0.36811523  0.63825799  0.93076442     0.15600
H1961       H  0.42896943  0.72348304  0.85153030     0.15700
C1962       C  0.44647752  0.74865605  0.90884223    -0.23300
H1963       H  0.35256840  0.59078344  0.89418305     0.05900
H1964       H  0.37832487  0.59174795  0.85846163     0.09100
H1965       H  0.33105531  0.61577729  0.86144926     0.09100
H1966       H  0.47076976  0.73848632  0.92421931     0.09100
H1967       H  0.42927463  0.77142668  0.92066594     0.09100
H1968       H  0.45941768  0.76275985  0.88818408     0.05900
C1969       C  0.40976429  0.71086480  0.63713325    -0.19900
C1970       C  0.38582377  0.67977523  0.64687770    -0.06500
C1971       C  0.36979579  0.65433403  0.62430408     0.14400
C1972       C  0.37532213  0.66214530  0.59283196    -0.20000
C1973       C  0.39776877  0.69421058  0.58283068    -0.06500
C1974       C  0.41624672  0.71832484  0.60557231     0.14300
C1975       C  0.44256178  0.75217701  0.59710434    -0.23300
H1976       H  0.42367558  0.72925049  0.65450417     0.15600
H1977       H  0.36130584  0.64335195  0.57577698     0.15700
C1978       C  0.34808910  0.61790036  0.63323009    -0.23300
H1979       H  0.45491042  0.76711844  0.61780885     0.05900
H1980       H  0.42615988  0.77459291  0.58342102     0.09100
H1981       H  0.46729351  0.74092539  0.58355108     0.09100
H1982       H  0.32061920  0.62675510  0.64421562     0.09100
H1983       H  0.36635130  0.59950512  0.64918459     0.09100
H1984       H  0.34053078  0.59976810  0.61282140     0.05900
O1985       O  0.61554434  0.19948270  0.46567666    -0.72600
O1986       O  0.58027728  0.27589139  0.03138094    -0.73600
O1987       O  0.58266895  0.27322795  0.46400798    -0.62200
O1988       O  0.61057048  0.20116995  0.03346226    -0.70600
O1989       O  0.67054546  0.22552013  0.03546827    -0.70100
O1990       O  0.64199306  0.29931264  0.46483829    -0.61400
O1991       O  0.64028841  0.30027854  0.03290241    -0.73900
O1992       O  0.67486690  0.22550563  0.46655973    -0.72700
Cu1993     Cu  0.59469823  0.23728020  0.99851753     1.04600
Cu1994     Cu  0.65986487  0.26388473  0.49985879     1.04300
C1995       C  0.64874465  0.20445417  0.45312801     0.93600
C1996       C  0.60671189  0.29622478  0.04502118     0.92800
C1997       C  0.60910307  0.29372415  0.45102373     0.84900
C1998       C  0.64307465  0.20584382  0.04799013     0.91200
O1999       O  0.54171757  0.02347848  0.46781012    -0.72600
O2000       O  0.51638581  0.45004020  0.03312557    -0.73600
O2001       O  0.51393429  0.44652204  0.46525173    -0.62200
O2002       O  0.54325560  0.02330013  0.03549365    -0.70600
O2003       O  0.73751807  0.04841948  0.03501030    -0.70100
O2004       O  0.70593258  0.47664752  0.46397368    -0.61400
O2005       O  0.70982917  0.47379619  0.03281925    -0.73900
O2006       O  0.73421715  0.05223099  0.46735253    -0.72700
Cu2007     Cu  0.53144530  0.98599989  0.00030489     1.04600
Cu2008     Cu  0.72145863  0.01332367  0.99982513     1.04300
C2009       C  0.76733912  0.04986167  0.45436916     0.93600
C2010       C  0.73755019  0.45382983  0.04565149     0.92800
C2011       C  0.73307483  0.45729035  0.45084977     0.84900
C2012       C  0.77080965  0.04443553  0.04861367     0.91200
C2013       C  0.71853110  0.12093825  0.25033082     0.30400
C2014       C  0.54836066  0.12389005  0.25146251     0.30400
C2015       C  0.73881594  0.10160510  0.22270031    -0.05800
C2016       C  0.73664624  0.16277482  0.25052182    -0.06600
C2017       C  0.73897554  0.10079449  0.27832437    -0.06500
C2018       C  0.52866911  0.10316466  0.22374190    -0.05800
C2019       C  0.52722804  0.16436112  0.25185395    -0.06600
C2020       C  0.53039878  0.10170703  0.27895187    -0.06500
C2021       C  0.54084612  0.08783752  0.19616358    -0.31900
N2022       N  0.76118358  0.07933996  0.17792291     0.14600
C2023       C  0.72819890  0.08642713  0.19415759    -0.31900
H2024       H  0.69869996  0.08271567  0.18528096     0.16600
C2025       C  0.53690848  0.20427077  0.25104555    -0.30900
N2026       N  0.75324513  0.22654700  0.24965699     0.13300
C2027       C  0.72256220  0.20112617  0.24968083    -0.30800
C2028       C  0.54412741  0.08574812  0.30640725    -0.31100
N2029       N  0.76113515  0.07725140  0.32356703     0.13900
H2030       H  0.57430373  0.08440720  0.31381104     0.16500
C2031       C  0.72825902  0.08496050  0.30651453    -0.31100
H2032       H  0.69888564  0.08178756  0.31490496     0.16500
H2033       H  0.69213209  0.20977765  0.24900014     0.16500
H2034       H  0.57061695  0.08538740  0.18890136     0.16600
H2035       H  0.56619351  0.21611337  0.25020844     0.16500
C2036       C  0.53479975  0.37431541  0.24882275     0.30400
C2037       C  0.70511638  0.37082901  0.24839603     0.30400
C2038       C  0.51355758  0.39477144  0.22130806    -0.05800
C2039       C  0.51691157  0.33223528  0.24850155    -0.06600
C2040       C  0.51501809  0.39328299  0.27699396    -0.06500
C2041       C  0.72376144  0.39292443  0.22117713    -0.05800
C2042       C  0.72631039  0.33035380  0.24835342    -0.06600
C2043       C  0.72408492  0.39165207  0.27636571    -0.06500
C2044       C  0.71062853  0.40908516  0.19363717    -0.31900
N2045       N  0.74173499  0.41925195  0.17630213     0.14600
C2046       C  0.52331066  0.41215153  0.19341771    -0.31900
H2047       H  0.55256888  0.41601676  0.18468143     0.16600
C2048       C  0.71671196  0.29043654  0.24841233    -0.30900
N2049       N  0.75037301  0.26852716  0.24888121     0.13300
C2050       C  0.53108797  0.29381101  0.24897491    -0.30800
C2051       C  0.71097073  0.40757389  0.30343398    -0.31100
N2052       N  0.74204506  0.41663436  0.32186738     0.13900
H2053       H  0.68080692  0.41063094  0.30985879     0.16500
C2054       C  0.52591541  0.40958345  0.30518200    -0.31100
H2055       H  0.55550481  0.41406896  0.31359855     0.16500
H2056       H  0.56151945  0.28521073  0.24916896     0.16500
H2057       H  0.68052233  0.41102115  0.18608075     0.16600
H2058       H  0.68741478  0.27853353  0.24834472     0.16500
C2059       C  0.58003186  0.37450014  0.24840454     0.30400
C2060       C  0.65980933  0.37076371  0.24815249     0.30400
C2061       C  0.59795938  0.35391572  0.22045828    -0.05800
C2062       C  0.60129656  0.41486972  0.24872083    -0.06600
C2063       C  0.59952608  0.35232336  0.27564613    -0.06500
C2064       C  0.63853101  0.35190257  0.22008239    -0.05800
C2065       C  0.64184124  0.41270928  0.24848468    -0.06600
C2066       C  0.64003389  0.35048633  0.27593473    -0.06500
C2067       C  0.64821543  0.33788044  0.19121748    -0.31900
N2068       N  0.61477429  0.33259428  0.17414296     0.14600
C2069       C  0.58408222  0.34091123  0.19227255    -0.31900
H2070       H  0.55386974  0.34004079  0.18457611     0.16600
C2071       C  0.65606152  0.45099834  0.24863751    -0.30900
N2072       N  0.62547044  0.47653842  0.24905984     0.13300
C2073       C  0.59178190  0.45477091  0.24909707    -0.30800
C2074       C  0.65113008  0.33475997  0.30448019    -0.31100
N2075       N  0.61843182  0.32758842  0.32114173     0.13900
H2076       H  0.68073731  0.33104565  0.31316165     0.16500
C2077       C  0.58694666  0.33687836  0.30317420    -0.31100
H2078       H  0.55706513  0.33488143  0.31046090     0.16500
H2079       H  0.56246358  0.46678680  0.24938361     0.16500
H2080       H  0.67745413  0.33369995  0.18282745     0.16600
H2081       H  0.68647871  0.45953858  0.24851776     0.16500
C2082       C  0.59361745  0.12407824  0.25123177     0.30400
C2083       C  0.67332832  0.12084544  0.25042675     0.30400
C2084       C  0.61503904  0.14325509  0.27909110    -0.05800
C2085       C  0.61179224  0.08223863  0.25085170    -0.06600
C2086       C  0.61293720  0.14431862  0.22323377    -0.06500
C2087       C  0.65555336  0.14170608  0.27835974    -0.05800
C2088       C  0.65232537  0.08030261  0.25040957    -0.06600
C2089       C  0.65344294  0.14261122  0.22309574    -0.06500
C2090       C  0.66970339  0.15629051  0.30602281    -0.31900
N2091       N  0.63923670  0.16470442  0.32433848     0.14600
C2092       C  0.60561554  0.15806400  0.30780533    -0.31900
H2093       H  0.57645980  0.16188233  0.31653775     0.16600
C2094       C  0.66205814  0.04041334  0.24978949    -0.30900
N2095       N  0.62846451  0.01848635  0.24989550     0.13300
C2096       C  0.59776815  0.04389447  0.25056303    -0.30800
C2097       C  0.66540257  0.15844133  0.19548024    -0.31100
N2098       N  0.63351305  0.16800146  0.17792019     0.13900
H2099       H  0.69517613  0.16091241  0.18805239     0.16500
C2100       C  0.60124319  0.16073586  0.19509796    -0.31100
H2101       H  0.57143880  0.16546675  0.18730682     0.16500
H2102       H  0.56739460  0.03524561  0.25073921     0.16500
H2103       H  0.70004855  0.15823926  0.31330029     0.16600
H2104       H  0.69138059  0.02853489  0.24920713     0.16500
C2105       C  0.50093641  0.40741896  0.40842343    -0.19900
C2106       C  0.72876673  0.44357419  0.41813685    -0.06500
C2107       C  0.70899505  0.46615844  0.39476302     0.14400
C2108       C  0.71480208  0.45741304  0.36333292    -0.20000
C2109       C  0.73917022  0.42631174  0.35433324    -0.06500
C2110       C  0.50661484  0.39996991  0.37699389     0.14300
C2111       C  0.52860385  0.36370676  0.36827770    -0.23300
H2112       H  0.51515657  0.38864989  0.42562481     0.15600
H2113       H  0.70021695  0.47493399  0.34551815     0.15700
C2114       C  0.68209053  0.49978901  0.40243296    -0.23300
H2115       H  0.53623864  0.34534213  0.38878951     0.05900
H2116       H  0.55601214  0.37269449  0.35716474     0.09100
H2117       H  0.51049940  0.34543796  0.35239792     0.09100
H2118       H  0.69825319  0.52285871  0.41528630     0.09100
H2119       H  0.65763782  0.48863369  0.41654825     0.09100
H2120       H  0.66921449  0.51388348  0.38134526     0.05900
C2121       C  0.71597144  0.46618056  0.09920704    -0.19900
C2122       C  0.73400356  0.44034097  0.07844678    -0.06500
C2123       C  0.50171451  0.40722268  0.09163802     0.14400
C2124       C  0.50509834  0.40226035  0.12388767    -0.20000
C2125       C  0.73982127  0.42767399  0.14350337    -0.06500
C2126       C  0.71843892  0.46015388  0.13140645     0.14300
C2127       C  0.69924327  0.48917837  0.15248352    -0.23300
H2128       H  0.70114311  0.49229544  0.09026953     0.15600
H2129       H  0.52134662  0.37738227  0.13338304     0.15700
C2130       C  0.52038120  0.37728937  0.07110733    -0.23300
H2131       H  0.68633896  0.51453122  0.13944093     0.05900
H2132       H  0.72112976  0.50086334  0.16923182     0.09100
H2133       H  0.67533135  0.47465180  0.16522247     0.09100
H2134       H  0.54518192  0.39062323  0.05863670     0.09100
H2135       H  0.49838592  0.36581155  0.05433090     0.09100
H2136       H  0.53183796  0.35186237  0.08470960     0.05900
C2137       C  0.53932573  0.03195273  0.40216470    -0.19900
C2138       C  0.77043269  0.06176567  0.42140524    -0.06500
C2139       C  0.75141653  0.09529485  0.40855645     0.14400
C2140       C  0.74752788  0.09906262  0.37623415    -0.20000
C2141       C  0.76300596  0.07058464  0.35642392    -0.06500
C2142       C  0.53777708  0.03710048  0.36990062     0.14300
C2143       C  0.55867323  0.00819384  0.34973424    -0.23300
H2144       H  0.55499608  0.00670143  0.41176891     0.15600
H2145       H  0.73310736  0.12482859  0.36622267     0.15700
C2146       C  0.73657705  0.12771747  0.42875221    -0.23300
H2147       H  0.57198081  0.98362624  0.36346504     0.05900
H2148       H  0.58253443  0.02317707  0.33727904     0.09100
H2149       H  0.53777619  0.99528081  0.33276698     0.09100
H2150       H  0.76053768  0.13812862  0.44426368     0.09100
H2151       H  0.71184313  0.11704293  0.44271083     0.09100
H2152       H  0.72633692  0.15337741  0.41476468     0.05900
C2153       C  0.75228268  0.08880775  0.09122422    -0.19900
C2154       C  0.77489428  0.05692188  0.08143762    -0.06500
C2155       C  0.54050488  0.03181234  0.10424963     0.14400
C2156       C  0.53523692  0.03940110  0.13589205    -0.20000
C2157       C  0.76385875  0.07104137  0.14534669    -0.06500
C2158       C  0.74736550  0.09665483  0.12267622     0.14300
C2159       C  0.72560323  0.13314070  0.13137930    -0.23300
H2160       H  0.73775157  0.10739126  0.07407667     0.15600
H2161       H  0.55063235  0.02175718  0.15315535     0.15700
C2162       C  0.56815243  0.99918839  0.09569113    -0.23300
H2163       H  0.71853943  0.15182080  0.11089523     0.05900
H2164       H  0.74366399  0.15108153  0.14754535     0.09100
H2165       H  0.69776207  0.12448926  0.14201522     0.09100
H2166       H  0.59205030  0.01142336  0.08152183     0.09100
H2167       H  0.55240876  0.97602705  0.08264109     0.09100
H2168       H  0.58176615  0.98482326  0.11635755     0.05900
C2169       C  0.62629802  0.33833221  0.40761511    -0.19900
C2170       C  0.60475476  0.30584768  0.41796761    -0.06500
C2171       C  0.58637182  0.28116021  0.39556382     0.14400
C2172       C  0.59280376  0.28795179  0.36394151    -0.20000
C2173       C  0.61611813  0.31928842  0.35383358    -0.06500
C2174       C  0.63124042  0.34581092  0.37602435     0.14300
C2175       C  0.65161311  0.38278633  0.36652586    -0.23300
H2176       H  0.64000704  0.35763729  0.42440994     0.15600
H2177       H  0.57922887  0.26900838  0.34684217     0.15700
C2178       C  0.55988871  0.24761690  0.40442653    -0.23300
H2179       H  0.65834894  0.40182394  0.38659760     0.05900
H2180       H  0.63285849  0.40000108  0.35009521     0.09100
H2181       H  0.67941605  0.37448262  0.35585712     0.09100
H2182       H  0.53534114  0.25926125  0.41801966     0.05700
H2183       H  0.57622443  0.22523228  0.41815429     0.09100
H2184       H  0.54721637  0.23254309  0.38391657     0.05900
C2185       C  0.62498844  0.34120911  0.08767345    -0.19900
C2186       C  0.60146158  0.31010007  0.07722071    -0.06500
C2187       C  0.57999672  0.28806847  0.09929584     0.14400
C2188       C  0.58525400  0.29587815  0.13095830    -0.20000
C2189       C  0.61114048  0.32511657  0.14138213    -0.06500
C2190       C  0.62955118  0.34930751  0.11921738     0.14300
C2191       C  0.65359521  0.38419938  0.12844553    -0.23300
H2192       H  0.64104277  0.35858823  0.07102180     0.15600
H2193       H  0.56956969  0.27858798  0.14787436     0.15700
C2194       C  0.55200119  0.25585116  0.09001305    -0.23300
H2195       H  0.68050207  0.37357778  0.14025840     0.05900
H2196       H  0.63649767  0.40370381  0.14360836     0.09100
H2197       H  0.66247470  0.40191017  0.10810860     0.09100
H2198       H  0.56777568  0.23170818  0.07851966     0.09100
H2199       H  0.52928831  0.26826955  0.07410959     0.09100
H2200       H  0.53702358  0.24281309  0.11020792     0.05900
C2201       C  0.63219209  0.15743427  0.41115784    -0.19900
C2202       C  0.65373414  0.19042228  0.42080576    -0.06500
C2203       C  0.67270589  0.21356695  0.39795185     0.14400
C2204       C  0.66723577  0.20460196  0.36646228    -0.20000
C2205       C  0.64329199  0.17327158  0.35692289    -0.06500
C2206       C  0.62723324  0.14834963  0.37975967     0.14300
C2207       C  0.60509058  0.11181125  0.37129469    -0.23300
H2208       H  0.61795530  0.13927732  0.42834664     0.15600
H2209       H  0.68108077  0.22263945  0.34900609     0.15700
C2210       C  0.69809255  0.24824542  0.40627602    -0.23300
H2211       H  0.59782140  0.09387725  0.39195101     0.05900
H2212       H  0.62283286  0.09316366  0.35592178     0.09100
H2213       H  0.57730297  0.12052571  0.35979861     0.09100
H2214       H  0.72185133  0.23813252  0.42212213     0.09100
H2215       H  0.68065766  0.27122485  0.41765995     0.09100
H2216       H  0.71160975  0.26196456  0.38567988     0.05900
C2217       C  0.66054203  0.20765805  0.13551689    -0.19900
C2218       C  0.63504123  0.17789242  0.14534115    -0.06500
C2219       C  0.61604421  0.15465181  0.12263218     0.14400
C2220       C  0.62111824  0.16294030  0.09113613    -0.20000
C2221       C  0.64582431  0.19325666  0.08114879    -0.06500
C2222       C  0.66638004  0.21554452  0.10392013     0.14300
C2223       C  0.69447280  0.24781795  0.09544070    -0.23300
H2224       H  0.67625191  0.22452787  0.15279092     0.15600
H2225       H  0.60517404  0.14584605  0.07410691     0.15700
C2226       C  0.59147184  0.11997507  0.13120658    -0.23300
H2227       H  0.70855225  0.26129808  0.11608115     0.05900
H2228       H  0.67901545  0.27162204  0.08249746     0.09100
H2229       H  0.71783865  0.23521557  0.08113449     0.09100
H2230       H  0.56520697  0.13046046  0.14316335     0.09100
H2231       H  0.60877077  0.09932899  0.14603029     0.09100
H2232       H  0.58144064  0.10357334  0.11053759     0.05900
O2233       O  0.61302495  0.20019840  0.96589434    -0.72600
O2234       O  0.58219639  0.27394880  0.53224101    -0.73600
O2235       O  0.58276884  0.27510609  0.96364878    -0.62200
O2236       O  0.61419674  0.19984345  0.53295214    -0.70600
O2237       O  0.67315545  0.22655391  0.53533423    -0.70100
O2238       O  0.64266199  0.29978515  0.96561499    -0.61400
O2239       O  0.64117594  0.30074411  0.53257682    -0.73900
O2240       O  0.67288874  0.22490646  0.96684928    -0.72700
Cu2241     Cu  0.59673163  0.23581798  0.49868084     1.04600
Cu2242     Cu  0.65866172  0.26338646  0.00027755     1.04300
C2243       C  0.64630609  0.20451494  0.95334050     0.93600
C2244       C  0.60819978  0.29543586  0.54539581     0.92800
C2245       C  0.61000453  0.29520668  0.95130817     0.84900
C2246       C  0.64638351  0.20557474  0.54760264     0.91200
O2247       O  0.54309319  0.02583582  0.96675308    -0.72600
O2248       O  0.51420256  0.44238211  0.53292643    -0.73600
O2249       O  0.51589855  0.45284353  0.96550298    -0.62200
O2250       O  0.54111720  0.01941605  0.53614815    -0.70600
O2251       O  0.73544994  0.04774035  0.53507971    -0.70100
O2252       O  0.70956025  0.47789424  0.96383855    -0.61400
O2253       O  0.70698868  0.47281056  0.53314235    -0.73900
O2254       O  0.73704940  0.05266477  0.96740418    -0.72700
Cu2255     Cu  0.52960246  0.98287556  0.50045506     1.04600
Cu2256     Cu  0.71949666  0.01258170  0.49986727     1.04300
C2257       C  0.77024853  0.05013625  0.95455323     0.93600
C2258       C  0.73445599  0.45217377  0.54569186     0.92800
C2259       C  0.73719254  0.45911042  0.95085957     0.84900
C2260       C  0.76875788  0.04404465  0.54872342     0.91200
C2261       C  0.71728878  0.12286284  0.75075389     0.30400
C2262       C  0.54698366  0.12540600  0.75064717     0.30400
C2263       C  0.73742819  0.10314709  0.72311147    -0.05800
C2264       C  0.73559174  0.16468779  0.75069986    -0.06600
C2265       C  0.73786111  0.10292201  0.77889056    -0.06500
C2266       C  0.52720364  0.10493035  0.72287410    -0.05800
C2267       C  0.52616554  0.16596559  0.75113090    -0.06600
C2268       C  0.52882179  0.10325601  0.77804865    -0.06500
C2269       C  0.53932796  0.08913340  0.69546316    -0.31900
N2270       N  0.75952555  0.08006092  0.67833381     0.14600
C2271       C  0.72666618  0.08728304  0.69477296    -0.31900
H2272       H  0.69714360  0.08299794  0.68629461     0.16600
C2273       C  0.53636319  0.20569860  0.75075182    -0.30900
N2274       N  0.75289281  0.22836536  0.74996541     0.13300
C2275       C  0.72189100  0.20324536  0.74997451    -0.30800
C2276       C  0.54233750  0.08697492  0.80542546    -0.31100
N2277       N  0.76077298  0.07969523  0.82416564     0.13900
H2278       H  0.57249350  0.08530999  0.81290302     0.16500
C2279       C  0.72759925  0.08755508  0.80742375    -0.31100
H2280       H  0.69833050  0.08459277  0.81617169     0.16500
H2281       H  0.69157707  0.21219638  0.74938859     0.16500
H2282       H  0.56911546  0.08630719  0.68824193     0.16600
H2283       H  0.56577502  0.21718044  0.75013556     0.16500
C2284       C  0.53629714  0.37578644  0.74969599     0.30400
C2285       C  0.70674600  0.37318780  0.74879603     0.30400
C2286       C  0.51519882  0.39647446  0.72216287    -0.05800
C2287       C  0.51811502  0.33384138  0.74928234    -0.06600
C2288       C  0.51645004  0.39472184  0.77792763    -0.06500
C2289       C  0.72530021  0.39504148  0.72148771    -0.05800
C2290       C  0.72752634  0.33252269  0.74869026    -0.06600
C2291       C  0.72623482  0.39391718  0.77660675    -0.06500
C2292       C  0.71192681  0.41122848  0.69406942    -0.31900
N2293       N  0.74290552  0.42075730  0.67643382     0.14600
C2294       C  0.52494893  0.41296599  0.69391866    -0.31900
H2295       H  0.55407646  0.41627106  0.68498638     0.16600
C2296       C  0.71733660  0.29276637  0.74894764    -0.30900
N2297       N  0.75066031  0.27039125  0.74923983     0.13300
C2298       C  0.53184002  0.29525605  0.74969958    -0.30800
C2299       C  0.71386075  0.41012461  0.80378534    -0.31100
N2300       N  0.74542778  0.41912385  0.82174008     0.13900
H2301       H  0.68382402  0.41330917  0.81067889     0.16500
C2302       C  0.52719389  0.41065531  0.80629856    -0.31100
H2303       H  0.55676083  0.41518262  0.81477031     0.16500
H2304       H  0.56216080  0.28632614  0.74997918     0.16500
H2305       H  0.68181181  0.41344196  0.68669828     0.16600
H2306       H  0.68790450  0.28128634  0.74912214     0.16500
C2307       C  0.58159022  0.37591327  0.74913739     0.30400
C2308       C  0.66144465  0.37307775  0.74857777     0.30400
C2309       C  0.59958559  0.35575367  0.72095712    -0.05800
C2310       C  0.60249485  0.41643004  0.74963943    -0.06600
C2311       C  0.60149496  0.35376821  0.77619316    -0.06500
C2312       C  0.64019174  0.35432824  0.72038877    -0.05800
C2313       C  0.64307254  0.41476419  0.74926798    -0.06600
C2314       C  0.64204464  0.35239566  0.77628615    -0.06500
C2315       C  0.64986929  0.34072429  0.69134423    -0.31900
N2316       N  0.61640686  0.33484478  0.67443213     0.14600
C2317       C  0.58573003  0.34251369  0.69278036    -0.31900
H2318       H  0.55545851  0.34087505  0.68529641     0.16600
C2319       C  0.65680131  0.45318141  0.74956731    -0.30900
N2320       N  0.62585053  0.47828468  0.75017624     0.13300
C2321       C  0.59245359  0.45613834  0.75025868    -0.30800
C2322       C  0.65363735  0.33746144  0.80491954    -0.31100
N2323       N  0.62123707  0.33043265  0.82189412     0.13900
H2324       H  0.68347286  0.33398429  0.81337302     0.16500
C2325       C  0.58944950  0.33900672  0.80404800    -0.31100
H2326       H  0.55958746  0.33704069  0.81168298     0.16500
H2327       H  0.56301073  0.46777555  0.75064454     0.16500
H2328       H  0.67908114  0.33711384  0.68270929     0.16600
H2329       H  0.68713236  0.46209178  0.74926508     0.16500
C2330       C  0.59222949  0.12562437  0.75062736     0.30400
C2331       C  0.67202018  0.12282564  0.75061843     0.30400
C2332       C  0.61320302  0.14533423  0.77849325    -0.05800
C2333       C  0.61061190  0.08390086  0.75080258    -0.06600
C2334       C  0.61182791  0.14547693  0.72257652    -0.06500
C2335       C  0.65374995  0.14397686  0.77815546    -0.05800
C2336       C  0.65117907  0.08223484  0.75083497    -0.06600
C2337       C  0.65237066  0.14407663  0.72290448    -0.06500
C2338       C  0.66741150  0.15828903  0.80602736    -0.31900
N2339       N  0.63662423  0.16644071  0.82410727     0.14600
C2340       C  0.60328273  0.15988893  0.80717518    -0.31900
H2341       H  0.57394177  0.16360910  0.81556670     0.16600
C2342       C  0.66124158  0.04246805  0.75086761    -0.30900
N2343       N  0.62783518  0.02030283  0.75083137     0.13300
C2344       C  0.59688327  0.04545475  0.75078963    -0.30800
C2345       C  0.66461475  0.15946876  0.69527729    -0.31100
N2346       N  0.63302910  0.16838234  0.67720910     0.13900
H2347       H  0.69476098  0.16209046  0.68810174     0.16500
C2348       C  0.60048157  0.16113327  0.69405872    -0.31100
H2349       H  0.57083058  0.16544239  0.68586245     0.16500
H2350       H  0.56655031  0.03656714  0.75061762     0.16500
H2351       H  0.69759626  0.16010143  0.81360515     0.16600
H2352       H  0.69067160  0.03082380  0.75080185     0.16500
C2353       C  0.50330166  0.41175189  0.90968249    -0.19900
C2354       C  0.73350665  0.44583170  0.91804951    -0.06500
C2355       C  0.71312812  0.46817702  0.89486765     0.14400
C2356       C  0.71879625  0.45975212  0.86339977    -0.20000
C2357       C  0.74342458  0.42903123  0.85417430    -0.06500
C2358       C  0.50880538  0.40320114  0.87838549     0.14300
C2359       C  0.53195461  0.36733467  0.87040526    -0.23300
H2360       H  0.51841250  0.39416288  0.92719965     0.15600
H2361       H  0.70368045  0.47701752  0.84574664     0.15700
C2362       C  0.68549022  0.50108781  0.90275585    -0.23300
H2363       H  0.54015679  0.35000286  0.89133377     0.05900
H2364       H  0.55914629  0.37658091  0.85905885     0.09100
H2365       H  0.51439139  0.34789652  0.85502162     0.09100
H2366       H  0.70110729  0.52438902  0.91574617     0.09100
H2367       H  0.66130720  0.48920934  0.91680258     0.09100
H2368       H  0.67229454  0.51512006  0.88177527     0.05900
C2369       C  0.71531127  0.46635066  0.59944863    -0.19900
C2370       C  0.73162897  0.43938147  0.57865351    -0.06500
C2371       C  0.50043793  0.40214666  0.59256544     0.14400
C2372       C  0.50518875  0.39934213  0.62486200    -0.20000
C2373       C  0.74031762  0.42854958  0.64363737    -0.06500
C2374       C  0.71911547  0.46114603  0.63163627     0.14300
C2375       C  0.70134262  0.49096520  0.65283390    -0.23300
H2376       H  0.70076296  0.49260643  0.59050386     0.15600
H2377       H  0.52158502  0.37486315  0.63497440     0.15700
C2378       C  0.51780478  0.37058183  0.57279610    -0.23300
H2379       H  0.68906635  0.51666757  0.63985379     0.05900
H2380       H  0.72390210  0.50190782  0.66935854     0.09100
H2381       H  0.67726197  0.47734318  0.66593312     0.09100
H2382       H  0.54201171  0.38272983  0.55897612     0.09100
H2383       H  0.49488800  0.35817560  0.55725553     0.09100
H2384       H  0.52975313  0.34598363  0.58711838     0.05900
C2385       C  0.53733898  0.03214873  0.90056264    -0.19900
C2386       C  0.77374305  0.06343223  0.92189131    -0.06500
C2387       C  0.75341356  0.09657316  0.90954184     0.14400
C2388       C  0.74799154  0.10033857  0.87734487    -0.20000
C2389       C  0.76359555  0.07258031  0.85699445    -0.06500
C2390       C  0.53485740  0.03722025  0.86830385     0.14300
C2391       C  0.55388885  0.00759564  0.84762922    -0.23300
H2392       H  0.55217976  0.00627499  0.90992981     0.15600
H2393       H  0.73247789  0.12578572  0.86793625     0.15700
C2394       C  0.73775077  0.12872580  0.92963725    -0.23300
H2395       H  0.56648136  0.98236419  0.86099969     0.05900
H2396       H  0.57792781  0.02167886  0.83476740     0.09100
H2397       H  0.53197657  0.99583193  0.83091017     0.09100
H2398       H  0.74665540  0.12500872  0.95420470     0.09100
H2399       H  0.70542499  0.12897190  0.92788876     0.09100
H2400       H  0.74913025  0.15776696  0.92177052     0.05900
C2401       C  0.74867301  0.08747067  0.59146294    -0.19900
C2402       C  0.77265369  0.05669423  0.58161338    -0.06500
C2403       C  0.53892535  0.03047690  0.60466695     0.14400
C2404       C  0.53398619  0.03937017  0.63611303    -0.20000
C2405       C  0.76204598  0.07124848  0.64571988    -0.06500
C2406       C  0.74383685  0.09545635  0.62291062     0.14300
C2407       C  0.72033963  0.13080337  0.63135628    -0.23300
H2408       H  0.73300377  0.10511657  0.57434041     0.15600
H2409       H  0.54968770  0.02248056  0.65371934     0.15700
C2410       C  0.56645409  0.99748461  0.59669681    -0.23300
H2411       H  0.71189148  0.14839530  0.61064881     0.05900
H2412       H  0.73780027  0.15017117  0.64685256     0.09100
H2413       H  0.69321787  0.12093355  0.64250658     0.09100
H2414       H  0.59023577  0.00914858  0.58212841     0.09100
H2415       H  0.55054999  0.97388694  0.58423319     0.09100
H2416       H  0.58022715  0.98386127  0.61761091     0.05900
C2417       C  0.63020672  0.33929980  0.90844478    -0.19900
C2418       C  0.60686889  0.30785350  0.91837435    -0.06500
C2419       C  0.58770055  0.28425661  0.89570597     0.14400
C2420       C  0.59471196  0.29113739  0.86425518    -0.20000
C2421       C  0.61922158  0.32166538  0.85449058    -0.06500
C2422       C  0.63574279  0.34700799  0.87695165     0.14300
C2423       C  0.65804997  0.38306041  0.86793994    -0.23300
H2424       H  0.64472063  0.35766719  0.92550493     0.15600
H2425       H  0.58043222  0.27302399  0.84694529     0.15700
C2426       C  0.55960659  0.25186184  0.90406750    -0.23300
H2427       H  0.66600874  0.40110084  0.88832128     0.05900
H2428       H  0.63999752  0.40172455  0.85202527     0.09100
H2429       H  0.68535329  0.37378918  0.85689733     0.09100
H2430       H  0.53534476  0.26449662  0.91745629     0.05700
H2431       H  0.57471283  0.22861023  0.91779984     0.09100
H2432       H  0.54660738  0.23756203  0.88334319     0.05900
C2433       C  0.62504952  0.34224426  0.58762509    -0.19900
C2434       C  0.60327324  0.30948064  0.57773564    -0.06500
C2435       C  0.58369226  0.28655449  0.60040192     0.14400
C2436       C  0.58892189  0.29533184  0.63193620    -0.20000
C2437       C  0.61275310  0.32656607  0.64175211    -0.06500
C2438       C  0.62925853  0.35145212  0.61909543     0.14300
C2439       C  0.65093301  0.38809842  0.62786845    -0.23300
H2440       H  0.63976781  0.36026455  0.57061991     0.15600
H2441       H  0.57472766  0.27736170  0.64923477     0.15700
C2442       C  0.55757165  0.25244450  0.59190121    -0.23300
H2443       H  0.67830056  0.37942128  0.63993100     0.05900
H2444       H  0.63270992  0.40673282  0.64289630     0.09100
H2445       H  0.65868092  0.40594108  0.60729157     0.09100
H2446       H  0.57438061  0.22943230  0.57998431     0.09100
H2447       H  0.53343936  0.26314210  0.57659337     0.09100
H2448       H  0.54437811  0.23842450  0.61249490     0.05900
C2449       C  0.62765492  0.15903759  0.91084763    -0.19900
C2450       C  0.65090259  0.19063802  0.92091748    -0.06500
C2451       C  0.67133840  0.21291841  0.89837414     0.14400
C2452       C  0.66562051  0.20469060  0.86677578    -0.20000
C2453       C  0.64029006  0.17468449  0.85679566    -0.06500
C2454       C  0.62275549  0.15040932  0.87936238     0.14300
C2455       C  0.59947251  0.11475099  0.87060368    -0.23300
H2456       H  0.61229941  0.14149684  0.92777498     0.15600
H2457       H  0.68053777  0.22218745  0.84958447     0.15700
C2458       C  0.69844119  0.24609278  0.90709807    -0.23300
H2459       H  0.59107582  0.09719681  0.89115825     0.05900
H2460       H  0.61694990  0.09537957  0.85559489     0.09100
H2461       H  0.57229435  0.12442964  0.85867813     0.09100
H2462       H  0.72168331  0.23451271  0.92284230     0.09100
H2463       H  0.68215068  0.26979983  0.91867194     0.09100
H2464       H  0.71265460  0.25941422  0.88665174     0.05900
C2465       C  0.66093408  0.20804531  0.63525212    -0.19900
C2466       C  0.63528163  0.17815036  0.64464750    -0.06500
C2467       C  0.61735481  0.15445964  0.62165803     0.14400
C2468       C  0.62422439  0.16211161  0.59029477    -0.20000
C2469       C  0.64889544  0.19277019  0.58071444    -0.06500
C2470       C  0.66807427  0.21565155  0.60381242     0.14300
C2471       C  0.69617967  0.24811282  0.59582035    -0.23300
H2472       H  0.67578736  0.22526716  0.65280183     0.15600
H2473       H  0.60924799  0.14455225  0.57297748     0.15700
C2474       C  0.59182744  0.12019468  0.62982045    -0.23300
H2475       H  0.70950659  0.26176597  0.61670238     0.05900
H2476       H  0.68097634  0.27175707  0.58251227     0.09100
H2477       H  0.72005977  0.23558718  0.58200963     0.09100
H2478       H  0.56515417  0.13113764  0.64100384     0.09100
H2479       H  0.60814011  0.09950852  0.64527095     0.09100
H2480       H  0.58234512  0.10359722  0.60904023     0.05900
O2481       O  0.61452116  0.69866761  0.46554450    -0.72600
O2482       O  0.58009435  0.77564001  0.03149085    -0.73600
O2483       O  0.58224272  0.77258793  0.46400858    -0.62200
O2484       O  0.61173659  0.70138875  0.03364558    -0.70600
O2485       O  0.67128261  0.72682982  0.03539678    -0.70100
O2486       O  0.64172527  0.79828908  0.46497055    -0.61400
O2487       O  0.63966283  0.80110292  0.03279944    -0.73900
O2488       O  0.67400066  0.72432847  0.46634869    -0.72700
Cu2489     Cu  0.59489924  0.73701560  0.99865504     1.04600
Cu2490     Cu  0.65939347  0.76254519  0.49975673     1.04300
C2491       C  0.64765564  0.70362016  0.45288347     0.93600
C2492       C  0.60621164  0.79650820  0.04502926     0.92800
C2493       C  0.60883138  0.79299575  0.45111058     0.84900
C2494       C  0.64426942  0.70659839  0.04801407     0.91200
O2495       O  0.54177113  0.52201681  0.46763285    -0.72600
O2496       O  0.51569944  0.94745929  0.03328500    -0.73600
O2497       O  0.51392093  0.94794398  0.46510889    -0.62200
O2498       O  0.54338131  0.52601330  0.03517541    -0.70600
O2499       O  0.73705270  0.54966327  0.03487111    -0.70100
O2500       O  0.70770564  0.97591022  0.46407665    -0.61400
O2501       O  0.70967287  0.97282327  0.03284554    -0.73900
O2502       O  0.73468243  0.55210424  0.46708927    -0.72700
Cu2503     Cu  0.53162187  0.48873442  0.00015199     1.04600
Cu2504     Cu  0.72110435  0.51452237  0.99972178     1.04300
C2505       C  0.76788529  0.54898699  0.45427812     0.93600
C2506       C  0.73712689  0.95259493  0.04574715     0.92800
C2507       C  0.73525714  0.95724413  0.45091448     0.84900
C2508       C  0.77052191  0.54606512  0.04824952     0.91200
C2509       C  0.71863610  0.62084689  0.25031548     0.30400
C2510       C  0.54848949  0.62392557  0.25126696     0.30400
C2511       C  0.73895902  0.60170914  0.22260671    -0.05800
C2512       C  0.73673986  0.66269883  0.25067022    -0.06600
C2513       C  0.73905177  0.60055832  0.27829020    -0.06500
C2514       C  0.52871121  0.60344209  0.22355362    -0.05800
C2515       C  0.52737097  0.66438571  0.25188561    -0.06600
C2516       C  0.53061410  0.60151945  0.27875683    -0.06500
C2517       C  0.54079708  0.58850011  0.19587519    -0.31900
N2518       N  0.76140448  0.58037016  0.17756246     0.14600
C2519       C  0.72838674  0.58703786  0.19387390    -0.31900
H2520       H  0.69894861  0.58338832  0.18496995     0.16600
C2521       C  0.53707082  0.70428961  0.25106161    -0.30900
N2522       N  0.75338052  0.72646837  0.24971884     0.13300
C2523       C  0.72268028  0.70106408  0.24977528    -0.30800
C2524       C  0.54439286  0.58525514  0.30613089    -0.31100
N2525       N  0.76125450  0.57696321  0.32356949     0.13900
H2526       H  0.57453721  0.58376975  0.31340544     0.16500
C2527       C  0.72836059  0.58476501  0.30652897    -0.31100
H2528       H  0.69898893  0.58167122  0.31494525     0.16500
H2529       H  0.69226334  0.70973286  0.24900034     0.16500
H2530       H  0.57065590  0.58620732  0.18845139     0.16600
H2531       H  0.56632080  0.71610648  0.25005864     0.16500
C2532       C  0.53499323  0.87431656  0.24888688     0.30400
C2533       C  0.70533862  0.87075214  0.24849863     0.30400
C2534       C  0.51374887  0.89490212  0.22138490    -0.05800
C2535       C  0.51710160  0.83224344  0.24845567    -0.06600
C2536       C  0.51519474  0.89312510  0.27709513    -0.06500
C2537       C  0.72385568  0.89302106  0.22133982    -0.05800
C2538       C  0.72652385  0.83028016  0.24823071    -0.06600
C2539       C  0.72447546  0.89135892  0.27650561    -0.06500
C2540       C  0.71050790  0.90916697  0.19387382    -0.31900
N2541       N  0.74146882  0.91937765  0.17642869     0.14600
C2542       C  0.52340095  0.91209350  0.19337265    -0.31900
H2543       H  0.55254531  0.91574356  0.18450487     0.16600
C2544       C  0.71690228  0.79037460  0.24839019    -0.30900
N2545       N  0.75054643  0.76844552  0.24876641     0.13300
C2546       C  0.53127486  0.79381938  0.24903843    -0.30800
C2547       C  0.71161494  0.90713525  0.30370086    -0.31100
N2548       N  0.74286892  0.91612731  0.32198025     0.13900
H2549       H  0.68151237  0.91016909  0.31030240     0.16500
C2550       C  0.52607634  0.90929257  0.30533143    -0.31100
H2551       H  0.55566215  0.91379218  0.31378622     0.16500
H2552       H  0.56170756  0.78521654  0.24936776     0.16500
H2553       H  0.68036439  0.91096898  0.18639206     0.16600
H2554       H  0.68759635  0.77848937  0.24853865     0.16500
C2555       C  0.58022601  0.87448682  0.24855035     0.30400
C2556       C  0.66001077  0.87074072  0.24825519     0.30400
C2557       C  0.59809887  0.85392040  0.22060039    -0.05800
C2558       C  0.60149693  0.91485167  0.24888646    -0.06600
C2559       C  0.59973141  0.85229443  0.27578438    -0.06500
C2560       C  0.63866988  0.85196667  0.22011620    -0.05800
C2561       C  0.64204831  0.91270644  0.24867334    -0.06600
C2562       C  0.64024056  0.85042873  0.27604234    -0.06500
C2563       C  0.64816545  0.83826200  0.19107040    -0.31900
N2564       N  0.61459827  0.83289407  0.17415527     0.14600
C2565       C  0.58405290  0.84097405  0.19245905    -0.31900
H2566       H  0.55375403  0.83999051  0.18489163     0.16600
C2567       C  0.65622751  0.95102072  0.24892417    -0.30900
N2568       N  0.62560690  0.97653904  0.24935217     0.13300
C2569       C  0.59195327  0.95473341  0.24931998    -0.30800
C2570       C  0.65135018  0.83471512  0.30459639    -0.31100
N2571       N  0.61867508  0.82764651  0.32131871     0.13900
H2572       H  0.68098033  0.83083863  0.31319843     0.16500
C2573       C  0.58719684  0.83693971  0.30335158    -0.31100
H2574       H  0.55723922  0.83496510  0.31068944     0.16500
H2575       H  0.56258786  0.96673030  0.24960523     0.16500
H2576       H  0.67733361  0.83445623  0.18240322     0.16600
H2577       H  0.68666746  0.95959590  0.24886733     0.16500
C2578       C  0.59372712  0.62409372  0.25079750     0.30400
C2579       C  0.67343964  0.62076841  0.25025889     0.30400
C2580       C  0.61502854  0.64323575  0.27865134    -0.05800
C2581       C  0.61185141  0.58224278  0.25042414    -0.06600
C2582       C  0.61319784  0.64435168  0.22283159    -0.06500
C2583       C  0.65552760  0.64158344  0.27812717    -0.05800
C2584       C  0.65238628  0.58024764  0.25010973    -0.06600
C2585       C  0.65373182  0.64265606  0.22289270    -0.06500
C2586       C  0.66945853  0.65621948  0.30583133    -0.31900
N2587       N  0.63879698  0.66487626  0.32388946     0.14600
C2588       C  0.60535172  0.65830656  0.30716175    -0.31900
H2589       H  0.57602448  0.66237889  0.31565595     0.16600
C2590       C  0.66204478  0.54034067  0.24954004    -0.30900
N2591       N  0.62840544  0.51847639  0.24954168     0.13300
C2592       C  0.59775107  0.54393221  0.25008897    -0.30800
C2593       C  0.66594619  0.65881327  0.19547418    -0.31100
N2594       N  0.63424294  0.66843339  0.17775714     0.13900
H2595       H  0.69585090  0.66147397  0.18824557     0.16500
C2596       C  0.60178033  0.66089499  0.19464868    -0.31100
H2597       H  0.57205060  0.66542516  0.18656135     0.16500
H2598       H  0.56737235  0.53533941  0.25016755     0.16500
H2599       H  0.69970185  0.65803294  0.31329962     0.16600
H2600       H  0.69136591  0.52840074  0.24909536     0.16500
C2601       C  0.50085107  0.90805481  0.40860225    -0.19900
C2602       C  0.73096246  0.94332708  0.41828464    -0.06500
C2603       C  0.70999979  0.96511046  0.39509224     0.14400
C2604       C  0.71544367  0.95639410  0.36362890    -0.20000
C2605       C  0.74036711  0.92586712  0.35444607    -0.06500
C2606       C  0.50659871  0.90019139  0.37724096     0.14300
C2607       C  0.52853156  0.86375326  0.36881564    -0.23300
H2608       H  0.51493044  0.88941288  0.42597805     0.15600
H2609       H  0.70003547  0.97339427  0.34594348     0.15700
C2610       C  0.68208061  0.99778596  0.40297811    -0.23300
H2611       H  0.53603807  0.84560923  0.38948457     0.05900
H2612       H  0.55601845  0.87249738  0.35769565     0.09100
H2613       H  0.51044216  0.84534166  0.35302440     0.09100
H2614       H  0.69765322  0.02152854  0.41552035     0.09100
H2615       H  0.65833437  0.98581302  0.41745178     0.09100
H2616       H  0.66826052  0.01124039  0.38200533     0.05900
C2617       C  0.71516024  0.96527580  0.09910756    -0.19900
C2618       C  0.73323938  0.93925833  0.07851543    -0.06500
C2619       C  0.49993187  0.90491801  0.09178099     0.14400
C2620       C  0.50384878  0.90062755  0.12405155    -0.20000
C2621       C  0.73927313  0.92733770  0.14358931    -0.06500
C2622       C  0.71762680  0.95954112  0.13132527     0.14300
C2623       C  0.69801371  0.98850809  0.15221231    -0.23300
H2624       H  0.70028334  0.99126289  0.09002924     0.15600
H2625       H  0.51972428  0.87560049  0.13371065     0.15700
C2626       C  0.51716333  0.87394143  0.07140016    -0.23300
H2627       H  0.68497320  0.01366797  0.13902517     0.05900
H2628       H  0.71963770  0.00047250  0.16903544     0.09100
H2629       H  0.67410694  0.97382921  0.16486462     0.09100
H2630       H  0.54190156  0.88623463  0.05825375     0.09100
H2631       H  0.49435708  0.86269253  0.05519971     0.09100
H2632       H  0.52828678  0.84851246  0.08518763     0.05900
C2633       C  0.53926998  0.53065246  0.40187258    -0.19900
C2634       C  0.77174293  0.56156408  0.42148089    -0.06500
C2635       C  0.75205839  0.59476713  0.40864832     0.14400
C2636       C  0.74734699  0.59819321  0.37638106    -0.20000
C2637       C  0.76325154  0.57011335  0.35644006    -0.06500
C2638       C  0.53790821  0.53608780  0.36960195     0.14300
C2639       C  0.55895271  0.50738791  0.34936251    -0.23300
H2640       H  0.55491690  0.50537746  0.41139758     0.15600
H2641       H  0.73229133  0.62371096  0.36659236     0.15700
C2642       C  0.73639398  0.62731740  0.42831472    -0.23300
H2643       H  0.57217803  0.48269982  0.36300584     0.05900
H2644       H  0.58287926  0.52251575  0.33709192     0.09100
H2645       H  0.53816806  0.49463104  0.33223562     0.09100
H2646       H  0.74516530  0.62404367  0.45294053     0.09100
H2647       H  0.70410887  0.62744881  0.42648044     0.09100
H2648       H  0.74781604  0.65621303  0.42015951     0.05900
C2649       C  0.75201373  0.59029107  0.09090785    -0.19900
C2650       C  0.77486966  0.55868666  0.08098042    -0.06500
C2651       C  0.54089665  0.53403246  0.10375765     0.14400
C2652       C  0.53547370  0.54108334  0.13542595    -0.20000
C2653       C  0.76415054  0.57243441  0.14493426    -0.06500
C2654       C  0.74728809  0.59799016  0.12239136     0.14300
C2655       C  0.72529093  0.63421541  0.13125976    -0.23300
H2656       H  0.73710016  0.60874623  0.07383981     0.15600
H2657       H  0.55107466  0.52343548  0.15255294     0.15700
C2658       C  0.56913547  0.50203813  0.09497298    -0.23300
H2659       H  0.71788829  0.65286112  0.11082531     0.05900
H2660       H  0.74331579  0.65228481  0.14734893     0.09100
H2661       H  0.69765898  0.62520721  0.14202088     0.09100
H2662       H  0.59277537  0.51488527  0.08084957     0.09100
H2663       H  0.55380881  0.47869298  0.08182721     0.09100
H2664       H  0.58307532  0.48775094  0.11553948     0.05900
C2665       C  0.62702482  0.83741896  0.40788206    -0.19900
C2666       C  0.60470274  0.80540478  0.41809460    -0.06500
C2667       C  0.58578827  0.78131168  0.39557744     0.14400
C2668       C  0.59232321  0.78822945  0.36397943    -0.20000
C2669       C  0.61633664  0.81910499  0.35399121    -0.06500
C2670       C  0.63219543  0.84500829  0.37633119     0.14300
C2671       C  0.65360241  0.88148624  0.36709320    -0.23300
H2672       H  0.64120559  0.85625423  0.42477479     0.15600
H2673       H  0.57827064  0.76975553  0.34680250     0.15700
C2674       C  0.55859315  0.74830668  0.40430385    -0.23300
H2675       H  0.66089419  0.90004553  0.38732724     0.05900
H2676       H  0.63526263  0.89943549  0.35086761     0.09100
H2677       H  0.68120161  0.87263099  0.35633054     0.09100
H2678       H  0.53434628  0.76041501  0.41798887     0.05700
H2679       H  0.57446830  0.72545558  0.41791003     0.09100
H2680       H  0.54553637  0.73369572  0.38372988     0.05900
C2681       C  0.62327366  0.84234743  0.08758843    -0.19900
C2682       C  0.60078424  0.81036710  0.07725508    -0.06500
C2683       C  0.58024976  0.78762681  0.09947345     0.14400
C2684       C  0.58562994  0.79548684  0.13112373    -0.20000
C2685       C  0.61065935  0.82553741  0.14139702    -0.06500
C2686       C  0.62778185  0.85056949  0.11915357     0.14300
C2687       C  0.65048722  0.88635113  0.12841096    -0.23300
H2688       H  0.63852954  0.86029495  0.07087707     0.15600
H2689       H  0.57078535  0.77763470  0.14811241     0.15700
C2690       C  0.55315906  0.75455440  0.09036551    -0.23300
H2691       H  0.67786783  0.87663819  0.13997591     0.05900
H2692       H  0.63289592  0.90495700  0.14392677     0.09100
H2693       H  0.65835703  0.90463502  0.10810912     0.09100
H2694       H  0.56955675  0.73088761  0.07883544     0.09100
H2695       H  0.52999023  0.76622665  0.07453532     0.09100
H2696       H  0.53869646  0.74111036  0.11063646     0.05900
C2697       C  0.62993170  0.65777548  0.41050495    -0.19900
C2698       C  0.65236009  0.68999250  0.42045146    -0.06500
C2699       C  0.67222829  0.71275485  0.39786099     0.14400
C2700       C  0.66691527  0.70411888  0.36631041    -0.20000
C2701       C  0.64244282  0.67336300  0.35648442    -0.06500
C2702       C  0.62539727  0.64881836  0.37909265     0.14300
C2703       C  0.60286362  0.61263769  0.37042531    -0.23300
H2704       H  0.61498557  0.63990474  0.42750253     0.15600
H2705       H  0.68140766  0.72192710  0.34901379     0.15700
C2706       C  0.69822042  0.74684450  0.40649465    -0.23300
H2707       H  0.59498361  0.59485356  0.39100304     0.05900
H2708       H  0.62064849  0.59368857  0.35530737     0.09100
H2709       H  0.57538226  0.62177445  0.35866759     0.09100
H2710       H  0.72170292  0.73610103  0.42235050     0.09100
H2711       H  0.68113223  0.77007343  0.41793003     0.09100
H2712       H  0.71211455  0.76049534  0.38603023     0.05900
C2713       C  0.66080871  0.70888638  0.13558656    -0.19900
C2714       C  0.63611310  0.67830137  0.14520080    -0.06500
C2715       C  0.61848085  0.65421639  0.12237988     0.14400
C2716       C  0.62386137  0.66254003  0.09092352    -0.20000
C2717       C  0.64743992  0.69387407  0.08111860    -0.06500
C2718       C  0.66686929  0.71691943  0.10402777     0.14300
C2719       C  0.69396677  0.75012775  0.09571297    -0.23300
H2720       H  0.67563961  0.72632066  0.15297963     0.15600
H2721       H  0.60887326  0.64479366  0.07377919     0.15700
C2722       C  0.59487296  0.61879139  0.13087212    -0.23300
H2723       H  0.70736632  0.76407976  0.11643471     0.05900
H2724       H  0.67789400  0.77337637  0.08263117     0.09100
H2725       H  0.71786511  0.73831519  0.08155797     0.09100
H2726       H  0.56798931  0.62857889  0.14233380     0.09100
H2727       H  0.61239723  0.59891536  0.14620052     0.09100
H2728       H  0.58593998  0.60180429  0.11019282     0.05900
O2729       O  0.61350606  0.69996889  0.96610148    -0.72600
O2730       O  0.58179987  0.77304355  0.53227858    -0.73600
O2731       O  0.58204397  0.77435927  0.96357946    -0.62200
O2732       O  0.61343492  0.69875228  0.53294493    -0.70600
O2733       O  0.67264649  0.72495692  0.53496543    -0.70100
O2734       O  0.64143340  0.80023924  0.96538405    -0.61400
O2735       O  0.64101255  0.79930657  0.53258373    -0.73900
O2736       O  0.67289051  0.72583142  0.96665489    -0.72700
Cu2737     Cu  0.59605127  0.73494099  0.49866069     1.04600
Cu2738     Cu  0.65837406  0.76430647  0.00010846     1.04300
C2739       C  0.64659616  0.70480891  0.95336753     0.93600
C2740       C  0.60799804  0.79430311  0.54540887     0.92800
C2741       C  0.60886672  0.79490791  0.95110311     0.84900
C2742       C  0.64583202  0.70422140  0.54738979     0.91200
O2743       O  0.54285405  0.52866070  0.96677623    -0.72600
O2744       O  0.51378041  0.94356985  0.53270632    -0.73600
O2745       O  0.51564407  0.95009721  0.96561541    -0.62200
O2746       O  0.54149489  0.51823730  0.53615558    -0.70600
O2747       O  0.73570632  0.54810269  0.53493902    -0.70100
O2748       O  0.70979837  0.97661139  0.96411312    -0.61400
O2749       O  0.70891292  0.97172316  0.53291814    -0.73900
O2750       O  0.73634703  0.55407482  0.96737010    -0.72700
Cu2751     Cu  0.52982730  0.48155314  0.50050273     1.04600
Cu2752     Cu  0.71873835  0.51315394  0.49979394     1.04300
C2753       C  0.76946769  0.55165391  0.95440902     0.93600
C2754       C  0.73689256  0.95193167  0.54556022     0.92800
C2755       C  0.73726807  0.95756449  0.95116957     0.84900
C2756       C  0.76888744  0.54348250  0.54862284     0.91200
C2757       C  0.71762787  0.62267086  0.75055462     0.30400
C2758       C  0.54733728  0.62533224  0.75056502     0.30400
C2759       C  0.73786779  0.60321411  0.72282605    -0.05800
C2760       C  0.73575004  0.66454045  0.75065785    -0.06600
C2761       C  0.73829002  0.60259749  0.77859538    -0.06500
C2762       C  0.52759219  0.60497117  0.72271498    -0.05800
C2763       C  0.52649914  0.66593248  0.75113672    -0.06600
C2764       C  0.52913380  0.60301175  0.77786611    -0.06500
C2765       C  0.53973200  0.58899986  0.69538601    -0.31900
N2766       N  0.76021344  0.58014805  0.67811754     0.14600
C2767       C  0.72725200  0.58742666  0.69441682    -0.31900
H2768       H  0.69779589  0.58328782  0.68575932     0.16600
C2769       C  0.53654792  0.70573452  0.75069562    -0.30900
N2770       N  0.75269397  0.72826901  0.74989493     0.13300
C2771       C  0.72182821  0.70301014  0.74993672    -0.30800
C2772       C  0.54253566  0.58657867  0.80521905    -0.31100
N2773       N  0.76139800  0.57942907  0.82380414     0.13900
H2774       H  0.57270151  0.58497757  0.81284644     0.16500
C2775       C  0.72816161  0.58701025  0.80706329    -0.31100
H2776       H  0.69889983  0.58387887  0.81583780     0.16500
H2777       H  0.69149108  0.71181615  0.74932726     0.16500
H2778       H  0.56965195  0.58599931  0.68823267     0.16600
H2779       H  0.56594031  0.71732918  0.75003656     0.16500
C2780       C  0.53576891  0.87580876  0.74927490     0.30400
C2781       C  0.70617511  0.87303020  0.74866076     0.30400
C2782       C  0.51456528  0.89649756  0.72176217    -0.05800
C2783       C  0.51768563  0.83383982  0.74881465    -0.06600
C2784       C  0.51597229  0.89459230  0.77757550    -0.06500
C2785       C  0.72484684  0.89501952  0.72142173    -0.05800
C2786       C  0.72694467  0.83234074  0.74846828    -0.06600
C2787       C  0.72560686  0.89355782  0.77658066    -0.06500
C2788       C  0.71178055  0.91097720  0.69382299    -0.31900
N2789       N  0.74294706  0.92042552  0.67634793     0.14600
C2790       C  0.52415895  0.91291906  0.69344452    -0.31900
H2791       H  0.55327780  0.91621506  0.68441965     0.16600
C2792       C  0.71685074  0.79254601  0.74871287    -0.30900
N2793       N  0.75025160  0.77026587  0.74906509     0.13300
C2794       C  0.53156897  0.79532312  0.74923914    -0.30800
C2795       C  0.71312239  0.90931765  0.80389631    -0.31100
N2796       N  0.74466853  0.91792763  0.82201184     0.13900
H2797       H  0.68322807  0.91243602  0.81069130     0.16500
C2798       C  0.52678958  0.91000330  0.80611881    -0.31100
H2799       H  0.55634321  0.91413218  0.81473170     0.16500
H2800       H  0.56196983  0.78649581  0.74946775     0.16500
H2801       H  0.68162711  0.91300329  0.68617326     0.16600
H2802       H  0.68745152  0.78097691  0.74888593     0.16500
C2803       C  0.58104898  0.87597296  0.74882114     0.30400
C2804       C  0.66088081  0.87301387  0.74846841     0.30400
C2805       C  0.59913364  0.85598467  0.72061509    -0.05800
C2806       C  0.60199432  0.91648358  0.74954534    -0.06600
C2807       C  0.60080616  0.85359733  0.77586770    -0.06500
C2808       C  0.63972077  0.85443692  0.72019579    -0.05800
C2809       C  0.64257458  0.91476036  0.74925985    -0.06600
C2810       C  0.64134569  0.85217979  0.77607683    -0.06500
C2811       C  0.64956311  0.84043585  0.69132021    -0.31900
N2812       N  0.61619760  0.83458202  0.67428205     0.14600
C2813       C  0.58541300  0.84256914  0.69245062    -0.31900
H2814       H  0.55518612  0.84091924  0.68487598     0.16600
C2815       C  0.65636269  0.95318587  0.74978681    -0.30900
N2816       N  0.62544006  0.97834822  0.75046414     0.13300
C2817       C  0.59200449  0.95622404  0.75035253    -0.30800
C2818       C  0.65275900  0.83684099  0.80465090    -0.31100
N2819       N  0.62025620  0.82956527  0.82147649     0.13900
H2820       H  0.68251856  0.83330873  0.81318958     0.16500
C2821       C  0.58858292  0.83836524  0.80355522    -0.31100
H2822       H  0.55868959  0.83623149  0.81102787     0.16500
H2823       H  0.56260316  0.96787897  0.75073525     0.16500
H2824       H  0.67881162  0.83641644  0.68293721     0.16600
H2825       H  0.68667214  0.96204286  0.74960321     0.16500
C2826       C  0.59257329  0.62548075  0.75057105     0.30400
C2827       C  0.67236380  0.62264366  0.75049671     0.30400
C2828       C  0.61356278  0.64481309  0.77859839    -0.05800
C2829       C  0.61094278  0.58376529  0.75046496    -0.06600
C2830       C  0.61216460  0.64560598  0.72263297    -0.06500
C2831       C  0.65411930  0.64346628  0.77822073    -0.05800
C2832       C  0.65151342  0.58209849  0.75044970    -0.06600
C2833       C  0.65270944  0.64419438  0.72294085    -0.06500
C2834       C  0.66778859  0.65744694  0.80620000    -0.31900
N2835       N  0.63702002  0.66534192  0.82436309     0.14600
C2836       C  0.60365914  0.65890614  0.80744487    -0.31900
H2837       H  0.57435475  0.66243081  0.81595138     0.16600
C2838       C  0.66160357  0.54236953  0.75039676    -0.30900
N2839       N  0.62820268  0.52021816  0.75037570     0.13300
C2840       C  0.59723144  0.54533253  0.75040152    -0.30800
C2841       C  0.66496501  0.65933226  0.69522460    -0.31100
N2842       N  0.63335817  0.66805394  0.67713522     0.13900
H2843       H  0.69503092  0.66177977  0.68798544     0.16500
C2844       C  0.60081629  0.66092801  0.69400626    -0.31100
H2845       H  0.57114065  0.66491141  0.68566225     0.16500
H2846       H  0.56689195  0.53641867  0.75033234     0.16500
H2847       H  0.69801659  0.65934970  0.81375327     0.16600
H2848       H  0.69102212  0.53075010  0.75036380     0.16500
C2849       C  0.50214249  0.90915710  0.90949529    -0.19900
C2850       C  0.73329554  0.94413909  0.91843014    -0.06500
C2851       C  0.71244561  0.96629137  0.89540433     0.14400
C2852       C  0.71785021  0.95795648  0.86391111    -0.20000
C2853       C  0.74258450  0.92744247  0.85450878    -0.06500
C2854       C  0.50744718  0.90087893  0.87811519     0.14300
C2855       C  0.52922259  0.86432083  0.86974087    -0.23300
H2856       H  0.51663613  0.89087683  0.92689992     0.15600
H2857       H  0.70245745  0.97520387  0.84634090     0.15700
C2858       C  0.68462627  0.99895879  0.90348436    -0.23300
H2859       H  0.53664728  0.84627463  0.89047059     0.05900
H2860       H  0.55671416  0.87285775  0.85854294     0.09100
H2861       H  0.51102506  0.84588715  0.85403171     0.09100
H2862       H  0.70029807  0.02254983  0.91612584     0.09100
H2863       H  0.66084313  0.98691280  0.91788947     0.09100
H2864       H  0.67082705  0.01264397  0.88260240     0.05900
C2865       C  0.71669712  0.96578517  0.59903388    -0.19900
C2866       C  0.73403207  0.93918732  0.57849245    -0.06500
C2867       C  0.49982921  0.90275619  0.59202718     0.14400
C2868       C  0.50443458  0.89969232  0.62433279    -0.20000
C2869       C  0.74092382  0.92814888  0.64352680    -0.06500
C2870       C  0.71966736  0.96052556  0.63123460     0.14300
C2871       C  0.70099159  0.99012754  0.65212090    -0.23300
H2872       H  0.70193589  0.99181519  0.58989513     0.15600
H2873       H  0.52097331  0.87528461  0.63434792     0.15700
C2874       C  0.51765651  0.87155210  0.57214828    -0.23300
H2875       H  0.68876475  0.01569474  0.63894004     0.05900
H2876       H  0.72299413  0.00134970  0.66898590     0.09100
H2877       H  0.67669418  0.97623889  0.66479960     0.09100
H2878       H  0.54180007  0.88408527  0.55846514     0.09100
H2879       H  0.49495168  0.85902679  0.55646756     0.09100
H2880       H  0.52986245  0.84696938  0.58635947     0.05900
C2881       C  0.53717878  0.53347974  0.90082105    -0.19900
C2882       C  0.77276174  0.56439431  0.92162773    -0.06500
C2883       C  0.75210404  0.59704249  0.90888406     0.14400
C2884       C  0.74786071  0.60075146  0.87658905    -0.20000
C2885       C  0.76424747  0.57297877  0.85666988    -0.06500
C2886       C  0.53496898  0.53787670  0.86852697     0.14300
C2887       C  0.55463649  0.50809436  0.84837232    -0.23300
H2888       H  0.55221060  0.50796407  0.91058348     0.15600
H2889       H  0.73208441  0.62576410  0.86669117     0.15700
C2890       C  0.73543715  0.62849205  0.92913493    -0.23300
H2891       H  0.56728006  0.48322028  0.86213655     0.05900
H2892       H  0.57875368  0.52219984  0.83561879     0.09100
H2893       H  0.53312891  0.49582566  0.83157092     0.09100
H2894       H  0.75863693  0.63993260  0.94489928     0.09100
H2895       H  0.71098729  0.61653753  0.94278726     0.09100
H2896       H  0.72412477  0.65373527  0.91519614     0.05900
C2897       C  0.75032257  0.58795990  0.59122759    -0.19900
C2898       C  0.77321004  0.55625828  0.58147483    -0.06500
C2899       C  0.53982918  0.53019244  0.60466608     0.14400
C2900       C  0.53489403  0.53925917  0.63609434    -0.20000
C2901       C  0.76285963  0.57133854  0.64552310    -0.06500
C2902       C  0.74562416  0.59616588  0.62266681     0.14300
C2903       C  0.72324990  0.63227575  0.63113376    -0.23300
H2904       H  0.73532596  0.60610454  0.57405647     0.15600
H2905       H  0.55094596  0.52275888  0.65372586     0.15700
C2906       C  0.56789277  0.49764152  0.59675614    -0.23300
H2907       H  0.71556932  0.65031810  0.61047045     0.05900
H2908       H  0.74112841  0.65093033  0.64689159     0.09100
H2909       H  0.69577284  0.62317344  0.64211387     0.09100
H2910       H  0.59130744  0.50960786  0.58195184     0.09100
H2911       H  0.55230024  0.47359336  0.58457302     0.09100
H2912       H  0.58214768  0.48455129  0.61768492     0.05900
C2913       C  0.62843819  0.83901467  0.90806108    -0.19900
C2914       C  0.60552058  0.80730612  0.91807739    -0.06500
C2915       C  0.58683305  0.78328343  0.89543206     0.14400
C2916       C  0.59384736  0.79010809  0.86393440    -0.20000
C2917       C  0.61808458  0.82086090  0.85411171    -0.06500
C2918       C  0.63414775  0.84651340  0.87655794     0.14300
C2919       C  0.65629066  0.88263140  0.86751399    -0.23300
H2920       H  0.64261862  0.85768561  0.92507351     0.15600
H2921       H  0.57984241  0.77174319  0.84666126     0.15700
C2922       C  0.55920717  0.75054327  0.90389698    -0.23300
H2923       H  0.66389466  0.90089717  0.88784684     0.05900
H2924       H  0.63830195  0.90103081  0.85137322     0.09100
H2925       H  0.68378387  0.87339244  0.85673796     0.09100
H2926       H  0.53483968  0.76294152  0.91728634     0.05700
H2927       H  0.57463745  0.72757142  0.91770054     0.09100
H2928       H  0.54636703  0.73599503  0.88322182     0.05900
C2929       C  0.62564094  0.84088485  0.58750339    -0.19900
C2930       C  0.60321063  0.80854096  0.57769502    -0.06500
C2931       C  0.58321814  0.78607644  0.60040047     0.14400
C2932       C  0.58834005  0.79511986  0.63189703    -0.20000
C2933       C  0.61274181  0.82595963  0.64164783    -0.06500
C2934       C  0.63008645  0.85015121  0.61893048     0.14300
C2935       C  0.65295052  0.88613986  0.62753328    -0.23300
H2936       H  0.64080140  0.85844438  0.57046086     0.15600
H2937       H  0.57370241  0.77758824  0.64922475     0.15700
C2938       C  0.55697269  0.75202371  0.59199631    -0.23300
H2939       H  0.68005664  0.87675158  0.63968507     0.05900
H2940       H  0.63526895  0.90554356  0.64236510     0.09100
H2941       H  0.66136044  0.90348842  0.60687221     0.09100
H2942       H  0.57381770  0.72873700  0.58039745     0.09100
H2943       H  0.53307582  0.76266725  0.57643832     0.09100
H2944       H  0.54346216  0.73837046  0.61260528     0.05900
C2945       C  0.62894182  0.65827543  0.91120288    -0.19900
C2946       C  0.65121318  0.69075670  0.92097730    -0.06500
C2947       C  0.67069201  0.71353375  0.89817864     0.14400
C2948       C  0.66504556  0.70480568  0.86667097    -0.20000
C2949       C  0.64068996  0.67387740  0.85699363    -0.06500
C2950       C  0.62406498  0.64923462  0.87975888     0.14300
C2951       C  0.60165163  0.61291859  0.87118223    -0.23300
H2952       H  0.61426505  0.64039241  0.92831410     0.15600
H2953       H  0.67928974  0.72260601  0.84928886     0.15700
C2954       C  0.69702043  0.74748836  0.90655352    -0.23300
H2955       H  0.59376787  0.59527799  0.89183587     0.05900
H2956       H  0.61948933  0.59391357  0.85614512     0.09100
H2957       H  0.57424376  0.62186442  0.85924499     0.09100
H2958       H  0.72079430  0.73665540  0.92211600     0.09100
H2959       H  0.68030911  0.77078399  0.91821733     0.09100
H2960       H  0.71058098  0.76110396  0.88593662     0.05900
C2961       C  0.66066221  0.70758130  0.63490431    -0.19900
C2962       C  0.63558069  0.67733957  0.64450908    -0.06500
C2963       C  0.61824425  0.65292673  0.62172626     0.14400
C2964       C  0.62468024  0.66051043  0.59028952    -0.20000
C2965       C  0.64869358  0.69156462  0.58049951    -0.06500
C2966       C  0.66765213  0.71492358  0.60342124     0.14300
C2967       C  0.69539694  0.74762259  0.59521056    -0.23300
H2968       H  0.67520669  0.72527637  0.65233094     0.15600
H2969       H  0.60995705  0.64252917  0.57308998     0.15700
C2970       C  0.59379259  0.61803527  0.63023365    -0.23300
H2971       H  0.70854091  0.76167661  0.61599386     0.05900
H2972       H  0.67996417  0.77094068  0.58173953     0.09100
H2973       H  0.71944281  0.73524493  0.58149933     0.09100
H2974       H  0.56683760  0.62842240  0.64129654     0.09100
H2975       H  0.61069710  0.59809209  0.64592213     0.09100
H2976       H  0.58486040  0.60084375  0.60961516     0.05900
O2977       O  0.86254325  0.19719636  0.46829077    -0.72600
O2978       O  0.82764084  0.27490368  0.03257750    -0.73600
O2979       O  0.83002716  0.27111081  0.46471855    -0.62200
O2980       O  0.86172474  0.20173486  0.03581280    -0.70600
O2981       O  0.92025666  0.22946681  0.03740406    -0.70100
O2982       O  0.88909373  0.29774035  0.46612047    -0.61400
O2983       O  0.88630090  0.30244214  0.03328086    -0.73900
O2984       O  0.92162534  0.22374614  0.46876407    -0.72700
Cu2985     Cu  0.84357006  0.23586025  0.00010575     1.04600
Cu2986     Cu  0.90678925  0.26304044  0.50140856     1.04300
C2987       C  0.89568294  0.20214969  0.45564912     0.93600
C2988       C  0.85327568  0.29667399  0.04588011     0.92800
C2989       C  0.85659620  0.29174803  0.45191347     0.84900
C2990       C  0.89400894  0.20841583  0.05020209     0.91200
O2991       O  0.79526918  0.03022596  0.46718120    -0.72600
O2992       O  0.77065612  0.45136624  0.03258717    -0.73600
O2993       O  0.76635092  0.45318553  0.46445879    -0.62200
O2994       O  0.79821850  0.02558708  0.03552755    -0.70600
O2995       O  0.98156482  0.04620607  0.03468454    -0.70100
O2996       O  0.95286651  0.46920050  0.46422661    -0.61400
O2997       O  0.95476718  0.47159447  0.03319640    -0.73900
O2998       O  0.98189317  0.04579910  0.46715406    -0.72700
Cu2999     Cu  0.78622319  0.98901023  0.00012192     1.04600
Cu3000     Cu  0.96575410  0.01044443  0.99964381     1.04300
C3001       C  0.01531982  0.04327484  0.45460403     0.93600
C3002       C  0.98287391  0.45238384  0.04622186     0.92800
C3003       C  0.98064047  0.45083772  0.45113443     0.84900
C3004       C  0.01484372  0.04242993  0.04836989     0.91200
C3005       C  0.96870406  0.12054911  0.25188650     0.30400
C3006       C  0.79835330  0.12416925  0.25148114     0.30400
C3007       C  0.98811866  0.10153419  0.22363481    -0.05800
C3008       C  0.98677365  0.16250580  0.25212442    -0.06600
C3009       C  0.99005699  0.10004509  0.27931385    -0.06500
C3010       C  0.77941030  0.10313363  0.22361279    -0.05800
C3011       C  0.77721807  0.16470057  0.25110460    -0.06600
C3012       C  0.77948097  0.10240662  0.27863069    -0.06500
C3013       C  0.79242924  0.08794793  0.19631367    -0.31900
N3014       N  0.00891037  0.07897995  0.17829402     0.14600
C3015       C  0.97655925  0.08596734  0.19537442    -0.31900
H3016       H  0.94677523  0.08171756  0.18735754     0.16600
C3017       C  0.78688416  0.20459808  0.25052937    -0.30900
N3018       N  0.00336631  0.22641490  0.25079348     0.13300
C3019       C  0.97270139  0.20094259  0.25174149    -0.30800
C3020       C  0.79240434  0.08669110  0.30628841    -0.31100
N3021       N  0.01371687  0.07580326  0.32403195     0.13900
H3022       H  0.82251859  0.08471503  0.31413118     0.16500
C3023       C  0.98035413  0.08356272  0.30751491    -0.31100
H3024       H  0.95116102  0.07998806  0.31633726     0.16500
H3025       H  0.94233346  0.20957630  0.25177076     0.16500
H3026       H  0.82248515  0.08554268  0.18957723     0.16600
H3027       H  0.81619678  0.21646117  0.25058540     0.16500
C3028       C  0.78483457  0.37431411  0.24929369     0.30400
C3029       C  0.95500467  0.37061853  0.24883346     0.30400
C3030       C  0.76424798  0.39472364  0.22137360    -0.05800
C3031       C  0.76684825  0.33237797  0.24877880    -0.06600
C3032       C  0.76460029  0.39330279  0.27722729    -0.06500
C3033       C  0.97302852  0.39297467  0.22147488    -0.05800
C3034       C  0.97633882  0.33025309  0.24851571    -0.06600
C3035       C  0.97436335  0.39142151  0.27652642    -0.06500
C3036       C  0.95923197  0.40987853  0.19442558    -0.31900
N3037       N  0.98989578  0.42096333  0.17695592     0.14600
C3038       C  0.77470365  0.41120443  0.19325644    -0.31900
H3039       H  0.80410271  0.41481384  0.18489546     0.16600
C3040       C  0.96681706  0.29031499  0.24928430    -0.30900
N3041       N  0.00048666  0.26842895  0.24949177     0.13300
C3042       C  0.78101810  0.29400539  0.24903393    -0.30800
C3043       C  0.96157930  0.40726439  0.30365195    -0.31100
N3044       N  0.99289122  0.41703526  0.32150892     0.13900
H3045       H  0.93155642  0.40960642  0.31066200     0.16500
C3046       C  0.77507543  0.40917116  0.30568145    -0.31100
H3047       H  0.80456928  0.41345321  0.31440959     0.16500
H3048       H  0.81143451  0.28538282  0.24951494     0.16500
H3049       H  0.92895109  0.41144050  0.18715701     0.16600
H3050       H  0.93756245  0.27839451  0.24998677     0.16500
C3051       C  0.83002240  0.37426005  0.24930457     0.30400
C3052       C  0.90973202  0.37053936  0.24901146     0.30400
C3053       C  0.84794282  0.35350875  0.22144612    -0.05800
C3054       C  0.85124774  0.41464488  0.24963652    -0.06600
C3055       C  0.84942276  0.35213715  0.27661763    -0.06500
C3056       C  0.88846539  0.35169504  0.22091468    -0.05800
C3057       C  0.89176547  0.41250755  0.24942782    -0.06600
C3058       C  0.88996711  0.35027525  0.27691834    -0.06500
C3059       C  0.89798986  0.33777548  0.19191364    -0.31900
N3060       N  0.86438511  0.33174300  0.17520859     0.14600
C3061       C  0.83387511  0.33984179  0.19352173    -0.31900
H3062       H  0.80360110  0.33842674  0.18605879     0.16600
C3063       C  0.90594707  0.45083290  0.24982633    -0.30900
N3064       N  0.87534263  0.47637047  0.25033783     0.13300
C3065       C  0.84167184  0.45455749  0.25022744    -0.30800
C3066       C  0.90095921  0.33463949  0.30556630    -0.31100
N3067       N  0.86818621  0.32746054  0.32219249     0.13900
H3068       H  0.93053978  0.33086574  0.31426901     0.16500
C3069       C  0.83677117  0.33680155  0.30416473    -0.31100
H3070       H  0.80677632  0.33485355  0.31144446     0.16500
H3071       H  0.81239900  0.46651715  0.25058092     0.16500
H3072       H  0.92713200  0.33440368  0.18305934     0.16600
H3073       H  0.93635157  0.45939986  0.24978074     0.16500
C3074       C  0.84370240  0.12409743  0.25216616     0.30400
C3075       C  0.92347668  0.12050792  0.25227032     0.30400
C3076       C  0.86475458  0.14276030  0.28052957    -0.05800
C3077       C  0.86173888  0.08214269  0.25176189    -0.06600
C3078       C  0.86363680  0.14462554  0.22459620    -0.06500
C3079       C  0.90535564  0.14087936  0.28029569    -0.05800
C3080       C  0.90229638  0.08006640  0.25176824    -0.06600
C3081       C  0.90410247  0.14285253  0.22495785    -0.06500
C3082       C  0.91905833  0.15399245  0.30856962    -0.31900
N3083       N  0.88824941  0.16214770  0.32666011     0.14600
C3084       C  0.85490722  0.15661776  0.30949134    -0.31900
H3085       H  0.82563643  0.16060006  0.31790913     0.16600
C3086       C  0.91194363  0.04015164  0.25163909    -0.30900
N3087       N  0.87831217  0.01828665  0.25153974     0.13300
C3088       C  0.84763519  0.04378496  0.25167187    -0.30800
C3089       C  0.91668094  0.15943995  0.19772913    -0.31100
N3090       N  0.88519516  0.16950198  0.17993771     0.13900
H3091       H  0.94663564  0.16190960  0.19055287     0.16500
C3092       C  0.85255079  0.16153211  0.19646290    -0.31100
H3093       H  0.82290258  0.16580696  0.18801743     0.16500
H3094       H  0.81724552  0.03519382  0.25170485     0.16500
H3095       H  0.94918763  0.15527619  0.31625648     0.16600
H3096       H  0.94127025  0.02820599  0.25166255     0.16500
C3097       C  0.75133623  0.41126062  0.40896909    -0.19900
C3098       C  0.97752438  0.43906764  0.41800891    -0.06500
C3099       C  0.95842454  0.46297552  0.39509156     0.14400
C3100       C  0.96552371  0.45630478  0.36356756    -0.20000
C3101       C  0.99026029  0.42583792  0.35404774    -0.06500
C3102       C  0.75594378  0.40189218  0.37767947     0.14300
C3103       C  0.77763146  0.36499417  0.36983116    -0.23300
H3104       H  0.76609175  0.39342609  0.42651235     0.15600
H3105       H  0.95125899  0.47458627  0.34607460     0.15700
C3106       C  0.93041598  0.49543909  0.40330488    -0.23300
H3107       H  0.78558907  0.34755552  0.39079664     0.05900
H3108       H  0.80492748  0.37307687  0.35816243     0.09100
H3109       H  0.75916449  0.34605088  0.35470851     0.09100
H3110       H  0.94540182  0.51800165  0.41745959     0.09100
H3111       H  0.90561732  0.48283476  0.41626544     0.09100
H3112       H  0.91815132  0.51062291  0.38246017     0.05900
C3113       C  0.96004918  0.46401705  0.09936495    -0.19900
C3114       C  0.97947271  0.43875725  0.07893939    -0.06500
C3115       C  0.75404120  0.40697313  0.09061514     0.14400
C3116       C  0.75703397  0.40126784  0.12287723    -0.20000
C3117       C  0.98736214  0.42887177  0.14413425    -0.06500
C3118       C  0.96356489  0.45940484  0.13164907     0.14300
C3119       C  0.94306136  0.48810375  0.15225787    -0.23300
H3120       H  0.94341301  0.48877287  0.09008167     0.15600
H3121       H  0.77238093  0.37566467  0.13216210     0.15700
C3122       C  0.77119228  0.37663979  0.06966885    -0.23300
H3123       H  0.92863146  0.51223299  0.13876238     0.05900
H3124       H  0.96447115  0.50163297  0.16850614     0.09100
H3125       H  0.92009555  0.47285704  0.16553589     0.09100
H3126       H  0.79675289  0.38897326  0.05751881     0.09100
H3127       H  0.74874085  0.36689731  0.05257251     0.09100
H3128       H  0.78087007  0.35021043  0.08291317     0.05900
C3129       C  0.78665253  0.03385903  0.40137827    -0.19900
C3130       C  0.01996600  0.05706193  0.42204943    -0.06500
C3131       C  0.99869962  0.08921781  0.40914239     0.14400
C3132       C  0.99701826  0.09450424  0.37686932    -0.20000
C3133       C  0.01607159  0.06858789  0.35693491    -0.06500
C3134       C  0.78353636  0.03809376  0.36917779     0.14300
C3135       C  0.80155963  0.00752486  0.34877391    -0.23300
H3136       H  0.80072668  0.00767164  0.41095795     0.15600
H3137       H  0.98062738  0.11912785  0.36697453     0.15700
C3138       C  0.97806702  0.11832168  0.42919095    -0.23300
H3139       H  0.81351252  0.98217309  0.36237944     0.05900
H3140       H  0.82594539  0.02065981  0.33571390     0.09100
H3141       H  0.77927734  0.99615558  0.33221676     0.09100
H3142       H  0.99860140  0.12975768  0.44708280     0.09100
H3143       H  0.95260438  0.10424869  0.44030339     0.09100
H3144       H  0.96722153  0.14387452  0.41541547     0.05900
C3145       C  0.99565117  0.08618315  0.09151931    -0.19900
C3146       C  0.01894322  0.05496873  0.08134359    -0.06500
C3147       C  0.79441178  0.03318925  0.10422256     0.14400
C3148       C  0.78812167  0.04029217  0.13574303    -0.20000
C3149       C  0.01038721  0.07005319  0.14564324    -0.06500
C3150       C  0.99216058  0.09463169  0.12307655     0.14300
C3151       C  0.97044080  0.13097981  0.13200486    -0.23300
H3152       H  0.97988682  0.10407450  0.07461977     0.15600
H3153       H  0.80240078  0.02194135  0.15315476     0.15700
C3154       C  0.82170415  0.00014158  0.09589089    -0.23300
H3155       H  0.96139986  0.14874888  0.11150549     0.05900
H3156       H  0.98934044  0.14983693  0.14686636     0.09100
H3157       H  0.94383914  0.12214017  0.14428491     0.09100
H3158       H  0.84629347  0.01210888  0.08233803     0.09100
H3159       H  0.80597212  0.97750789  0.08229639     0.09100
H3160       H  0.83436764  0.98517619  0.11667391     0.05900
C3161       C  0.87494093  0.33660001  0.40889465    -0.19900
C3162       C  0.85310897  0.30399800  0.41876727    -0.06500
C3163       C  0.83556181  0.27940701  0.39593450     0.14400
C3164       C  0.84225358  0.28690872  0.36442252    -0.20000
C3165       C  0.86562641  0.31849859  0.35480305    -0.06500
C3166       C  0.88071480  0.34444944  0.37741374     0.14300
C3167       C  0.90194286  0.38122467  0.36847928    -0.23300
H3168       H  0.88828726  0.35568561  0.42599457     0.15600
H3169       H  0.82905197  0.26816806  0.34704305     0.15700
C3170       C  0.80994947  0.24502900  0.40429421    -0.23300
H3171       H  0.90879948  0.39964134  0.38886955     0.05900
H3172       H  0.88367614  0.39915053  0.35220646     0.09100
H3173       H  0.92975183  0.37285631  0.35776060     0.09100
H3174       H  0.78517963  0.25590218  0.41789745     0.05700
H3175       H  0.82669517  0.22296779  0.41802777     0.09100
H3176       H  0.79786490  0.22989952  0.38359186     0.05900
C3177       C  0.86980015  0.34271101  0.08856715    -0.19900
C3178       C  0.84836400  0.30988582  0.07838352    -0.06500
C3179       C  0.82982517  0.28583208  0.10089468     0.14400
C3180       C  0.83632723  0.29320767  0.13250048    -0.20000
C3181       C  0.86020560  0.32429596  0.14249977    -0.06500
C3182       C  0.87517556  0.35056560  0.12014379     0.14300
C3183       C  0.89644553  0.38725491  0.12938704    -0.23300
H3184       H  0.88351369  0.36172381  0.07166942     0.15600
H3185       H  0.82300793  0.27435207  0.14969126     0.15700
C3186       C  0.80346521  0.25206914  0.09211835    -0.23300
H3187       H  0.92465225  0.37871909  0.14027713     0.05900
H3188       H  0.87856415  0.40462472  0.14555651     0.09100
H3189       H  0.90260249  0.40632441  0.10913062     0.09100
H3190       H  0.81995741  0.22922902  0.07977004     0.09100
H3191       H  0.77930961  0.26339761  0.07713116     0.09100
H3192       H  0.79040742  0.23766163  0.11261339     0.05900
C3193       C  0.87890210  0.15514203  0.41347051    -0.19900
C3194       C  0.90082918  0.18780482  0.42340145    -0.06500
C3195       C  0.92073512  0.21048910  0.40076241     0.14400
C3196       C  0.91568696  0.20162260  0.36922083    -0.20000
C3197       C  0.89167550  0.17055377  0.35935001    -0.06500
C3198       C  0.87485287  0.14587185  0.38198599     0.14300
C3199       C  0.85300721  0.10937580  0.37315347    -0.23300
H3200       H  0.86392924  0.13729647  0.43043525     0.15600
H3201       H  0.93009926  0.21943460  0.35196235     0.15700
C3202       C  0.94680247  0.24463393  0.40926567    -0.23300
H3203       H  0.84496554  0.09166227  0.39371447     0.05900
H3204       H  0.87123334  0.09056652  0.35825858     0.09100
H3205       H  0.82583284  0.11825174  0.36090490     0.09100
H3206       H  0.97059569  0.23407329  0.42497759     0.09100
H3207       H  0.92976860  0.26793733  0.42067313     0.09100
H3208       H  0.96049661  0.25824659  0.38872692     0.05900
C3209       C  0.91029734  0.21141298  0.13792714    -0.19900
C3210       C  0.88722345  0.17948463  0.14741747    -0.06500
C3211       C  0.87132219  0.15436607  0.12454269     0.14400
C3212       C  0.87615215  0.16317089  0.09311707    -0.20000
C3213       C  0.89779535  0.19594040  0.08337189    -0.06500
C3214       C  0.91598038  0.21992976  0.10635777     0.14300
C3215       C  0.94112726  0.25474291  0.09810525    -0.23300
H3216       H  0.92403086  0.22965125  0.15543094     0.15600
H3217       H  0.86231218  0.14452404  0.07592615     0.15700
C3218       C  0.85034506  0.11728855  0.13307787    -0.23300
H3219       H  0.95329184  0.26965103  0.11889028     0.05900
H3220       H  0.92389852  0.27684293  0.08475164     0.09100
H3221       H  0.96593104  0.24450549  0.08419088     0.09100
H3222       H  0.82281868  0.12535164  0.14432304     0.09100
H3223       H  0.86901521  0.09887994  0.14872739     0.09100
H3224       H  0.84290528  0.09945295  0.11247672     0.05900
O3225       O  0.86331615  0.19854276  0.96804693    -0.72600
O3226       O  0.82890112  0.27388557  0.53332091    -0.73600
O3227       O  0.82957891  0.27174976  0.96403897    -0.62200
O3228       O  0.86159990  0.20003649  0.53572433    -0.70600
O3229       O  0.92061346  0.22679304  0.53709756    -0.70100
O3230       O  0.88808977  0.29953596  0.96598872    -0.61400
O3231       O  0.88795294  0.30054299  0.53363121    -0.73900
O3232       O  0.92185500  0.22628522  0.96856682    -0.72700
Cu3233     Cu  0.84375025  0.23472932  0.50050306     1.04600
Cu3234     Cu  0.90608266  0.26528448  0.00132583     1.04300
C3235       C  0.89630848  0.20427162  0.95534914     0.93600
C3236       C  0.85493490  0.29540144  0.54641982     0.92800
C3237       C  0.85598985  0.29280487  0.95143931     0.84900
C3238       C  0.89412281  0.20611629  0.54989504     0.91200
O3239       O  0.79777346  0.02973363  0.96722211    -0.72600
O3240       O  0.76716889  0.44872274  0.53224195    -0.73600
O3241       O  0.77034491  0.45539838  0.96469590    -0.62200
O3242       O  0.79635157  0.02554531  0.53554265    -0.70600
O3243       O  0.98108111  0.04170241  0.53487847    -0.70100
O3244       O  0.95469504  0.47460018  0.96440339    -0.61400
O3245       O  0.95333531  0.46514655  0.53321957    -0.73900
O3246       O  0.98142893  0.04912355  0.96656885    -0.72700
Cu3247     Cu  0.78456445  0.98915784  0.49980723     1.04600
Cu3248     Cu  0.96559666  0.00650966  0.49956932     1.04300
C3249       C  0.01445764  0.04604971  0.95347129     0.93600
C3250       C  0.98123912  0.44541545  0.54608653     0.92800
C3251       C  0.98275435  0.45610807  0.95176298     0.84900
C3252       C  0.01425020  0.03806730  0.54870914     0.91200
C3253       C  0.96734801  0.12239608  0.75067621     0.30400
C3254       C  0.79713321  0.12575828  0.75156816     0.30400
C3255       C  0.98675143  0.10352076  0.72233618    -0.05800
C3256       C  0.98571403  0.16423450  0.75121951    -0.06600
C3257       C  0.98836596  0.10139300  0.77792329    -0.06500
C3258       C  0.77798812  0.10463322  0.72382794    -0.05800
C3259       C  0.77618165  0.16632409  0.75117756    -0.06600
C3260       C  0.77838998  0.10428092  0.77885893    -0.06500
C3261       C  0.79080204  0.08905560  0.69657951    -0.31900
N3262       N  0.00779164  0.08025498  0.67732291     0.14600
C3263       C  0.97531546  0.08767858  0.69414621    -0.31900
H3264       H  0.94555744  0.08325629  0.68608653     0.16600
C3265       C  0.78625784  0.20606652  0.75072331    -0.30900
N3266       N  0.00318433  0.22793911  0.75072697     0.13300
C3267       C  0.97213649  0.20285712  0.75119649    -0.30800
C3268       C  0.79175535  0.08878350  0.80645292    -0.31100
N3269       N  0.01126916  0.07628906  0.82246535     0.13900
H3270       H  0.82177850  0.08672409  0.81383467     0.16500
C3271       C  0.97817128  0.08450138  0.80581690    -0.31100
H3272       H  0.94883331  0.08104410  0.81442134     0.16500
H3273       H  0.94186110  0.21186830  0.75120989     0.16500
H3274       H  0.82096638  0.08654948  0.68976592     0.16600
H3275       H  0.81572085  0.21761735  0.75082771     0.16500
C3276       C  0.78648516  0.37579962  0.74914931     0.30400
C3277       C  0.95665825  0.37247200  0.74962438     0.30400
C3278       C  0.76582362  0.39631918  0.72133343    -0.05800
C3279       C  0.76807827  0.33403830  0.74884541    -0.06600
C3280       C  0.76676743  0.39514737  0.77707365    -0.06500
C3281       C  0.97489751  0.39478492  0.72248256    -0.05800
C3282       C  0.97770253  0.33200734  0.74922678    -0.06600
C3283       C  0.97608123  0.39289103  0.77746078    -0.06500
C3284       C  0.96111726  0.41088648  0.69520830    -0.31900
N3285       N  0.99177455  0.42082282  0.67742661     0.14600
C3286       C  0.77605587  0.41240761  0.69304984    -0.31900
H3287       H  0.80536665  0.41552376  0.68432617     0.16600
C3288       C  0.96764586  0.29226704  0.74972274    -0.30900
N3289       N  0.00100118  0.26998337  0.74995123     0.13300
C3290       C  0.78168871  0.29545390  0.74910039    -0.30800
C3291       C  0.96334747  0.40823921  0.80474330    -0.31100
N3292       N  0.99464545  0.41744416  0.82282884     0.13900
H3293       H  0.93321634  0.41074149  0.81162478     0.16500
C3294       C  0.77801280  0.41126624  0.80519240    -0.31100
H3295       H  0.80772946  0.41549582  0.81343463     0.16500
H3296       H  0.81199501  0.28643292  0.74934673     0.16500
H3297       H  0.93086261  0.41237622  0.68786837     0.16600
H3298       H  0.93820817  0.28071435  0.75015487     0.16500
C3299       C  0.83163590  0.37571280  0.74926420     0.30400
C3300       C  0.91135607  0.37248415  0.74937627     0.30400
C3301       C  0.84979219  0.35536394  0.72140611    -0.05800
C3302       C  0.85260118  0.41620580  0.74993171    -0.06600
C3303       C  0.85096560  0.35338453  0.77650879    -0.06500
C3304       C  0.89033962  0.35378432  0.72100454    -0.05800
C3305       C  0.89314352  0.41441630  0.75000031    -0.06600
C3306       C  0.89149125  0.35172102  0.77694974    -0.06500
C3307       C  0.89996604  0.33952260  0.69208915    -0.31900
N3308       N  0.86639551  0.33312892  0.67539037     0.14600
C3309       C  0.83583235  0.34130354  0.69360474    -0.31900
H3310       H  0.80553300  0.33952602  0.68617627     0.16600
C3311       C  0.90687538  0.45296478  0.75053527    -0.30900
N3312       N  0.87591563  0.47819665  0.75080097     0.13300
C3313       C  0.84254248  0.45598819  0.75044844    -0.30800
C3314       C  0.90243989  0.33521614  0.80527307    -0.31100
N3315       N  0.86964396  0.32753131  0.82172744     0.13900
H3316       H  0.93202495  0.33114553  0.81388150     0.16500
C3317       C  0.83826256  0.33731045  0.80378027    -0.31100
H3318       H  0.80823281  0.33528762  0.81099798     0.16500
H3319       H  0.81311239  0.46762079  0.75047493     0.16500
H3320       H  0.92911859  0.33603688  0.68330507     0.16600
H3321       H  0.93717117  0.46183610  0.75065836     0.16500
C3322       C  0.84248219  0.12570715  0.75210162     0.30400
C3323       C  0.92220686  0.12239917  0.75146054     0.30400
C3324       C  0.86390177  0.14430853  0.78041730    -0.05800
C3325       C  0.86062395  0.08377649  0.75137457    -0.06600
C3326       C  0.86202906  0.14647362  0.72443703    -0.06500
C3327       C  0.90449481  0.14260201  0.77973923    -0.05800
C3328       C  0.90115998  0.08192490  0.75094224    -0.06600
C3329       C  0.90249758  0.14481329  0.72451008    -0.06500
C3330       C  0.91870778  0.15603130  0.80778114    -0.31900
N3331       N  0.88828251  0.16418974  0.82624102     0.14600
C3332       C  0.85462165  0.15827587  0.80951942    -0.31900
H3333       H  0.82552025  0.16201241  0.81839238     0.16600
C3334       C  0.91110906  0.04211559  0.75042862    -0.30900
N3335       N  0.87767919  0.01998772  0.75061233     0.13300
C3336       C  0.84680263  0.04527224  0.75123100    -0.30800
C3337       C  0.91484103  0.16084984  0.69711434    -0.31100
N3338       N  0.88320452  0.17063700  0.67949309     0.13900
H3339       H  0.94466927  0.16282567  0.68956412     0.16500
C3340       C  0.85066860  0.16291853  0.69621191    -0.31100
H3341       H  0.82092315  0.16688292  0.68779498     0.16500
H3342       H  0.81646795  0.03644509  0.75163728     0.16500
H3343       H  0.94908089  0.15745719  0.81510644     0.16600
H3344       H  0.94047188  0.03043292  0.75004600     0.16500
C3345       C  0.75691167  0.41426483  0.90866626    -0.19900
C3346       C  0.97974914  0.44266903  0.91901481    -0.06500
C3347       C  0.95907589  0.46448875  0.89570741     0.14400
C3348       C  0.96585631  0.45666586  0.86431836    -0.20000
C3349       C  0.99188715  0.42704237  0.85526367    -0.06500
C3350       C  0.76120459  0.40504806  0.87733245     0.14300
C3351       C  0.78332502  0.36854229  0.86929696    -0.23300
H3352       H  0.77227599  0.39674431  0.92605321     0.15600
H3353       H  0.95046848  0.47353347  0.84655302     0.15700
C3354       C  0.92995504  0.49618864  0.90336167    -0.23300
H3355       H  0.79178023  0.35132891  0.89022068     0.05900
H3356       H  0.81033044  0.37702068  0.85736009     0.09100
H3357       H  0.76489522  0.34925555  0.85443233     0.09100
H3358       H  0.94440302  0.52014263  0.91646358     0.09100
H3359       H  0.90606614  0.48326227  0.91718156     0.09100
H3360       H  0.91647360  0.50967915  0.88227405     0.05900
C3361       C  0.96154507  0.46120526  0.59931391    -0.19900
C3362       C  0.97892869  0.43393656  0.57932826    -0.06500
C3363       C  0.75149550  0.40585216  0.59082421     0.14400
C3364       C  0.75592637  0.40109314  0.62306503    -0.20000
C3365       C  0.98874793  0.42706545  0.64448784    -0.06500
C3366       C  0.96589403  0.45797792  0.63159032     0.14300
C3367       C  0.94673012  0.48804528  0.65181576    -0.23300
H3368       H  0.94559906  0.48620797  0.58961924     0.15600
H3369       H  0.77099910  0.37536868  0.63240622     0.15700
C3370       C  0.76707674  0.37443632  0.56999273    -0.23300
H3371       H  0.93317713  0.51239047  0.63800735     0.05900
H3372       H  0.96872686  0.50101658  0.66784993     0.09100
H3373       H  0.92330711  0.47404039  0.66541576     0.09100
H3374       H  0.79171160  0.38604758  0.55636666     0.09100
H3375       H  0.74340118  0.36406514  0.55419247     0.09100
H3376       H  0.77788199  0.34852869  0.58342837     0.05900
C3377       C  0.78999175  0.03621330  0.90132214    -0.19900
C3378       C  0.01806214  0.05853183  0.92049088    -0.06500
C3379       C  0.99715884  0.09084756  0.90746795     0.14400
C3380       C  0.99488405  0.09556553  0.87516792    -0.20000
C3381       C  0.01318248  0.06901228  0.85532466    -0.06500
C3382       C  0.78548119  0.04056194  0.86918400     0.14300
C3383       C  0.80317658  0.01031267  0.84829739    -0.23300
H3384       H  0.80487901  0.01022833  0.91044310     0.15600
H3385       H  0.97896124  0.12040949  0.86520362     0.15700
C3386       C  0.97783453  0.12091848  0.92743604    -0.23300
H3387       H  0.81580897  0.98501896  0.86157528     0.05900
H3388       H  0.82702663  0.02369726  0.83480975     0.09100
H3389       H  0.78050097  0.99875258  0.83215577     0.09100
H3390       H  0.99913566  0.13224242  0.94480185     0.09100
H3391       H  0.95238399  0.10772562  0.93919050     0.09100
H3392       H  0.96729573  0.14642966  0.91347062     0.05900
C3393       C  0.99509739  0.08382509  0.59048142    -0.19900
C3394       C  0.01831439  0.05202624  0.58126395    -0.06500
C3395       C  0.79350201  0.03414831  0.60441755     0.14400
C3396       C  0.78753761  0.04149298  0.63602401    -0.20000
C3397       C  0.00958863  0.07010650  0.64495166    -0.06500
C3398       C  0.99137129  0.09366597  0.62174834     0.14300
C3399       C  0.96934303  0.13029149  0.62967735    -0.23300
H3400       H  0.97941945  0.10100331  0.57303752     0.15600
H3401       H  0.80299895  0.02410980  0.65338750     0.15700
C3402       C  0.82192437  0.00215466  0.59599296    -0.23300
H3403       H  0.96034847  0.14708080  0.60866480     0.05900
H3404       H  0.98802518  0.14990066  0.64407736     0.09100
H3405       H  0.94268101  0.12201651  0.64214580     0.09100
H3406       H  0.84573892  0.01497676  0.58203806     0.09100
H3407       H  0.80682665  0.97873464  0.58274184     0.09100
H3408       H  0.83557355  0.98799980  0.61673854     0.05900
C3409       C  0.87609817  0.33647379  0.90837076    -0.19900
C3410       C  0.85310358  0.30469189  0.91819078    -0.06500
C3411       C  0.83526258  0.28036623  0.89532144     0.14400
C3412       C  0.84256733  0.28749976  0.86383627    -0.20000
C3413       C  0.86700247  0.31833629  0.85429630    -0.06500
C3414       C  0.88283348  0.34375784  0.87698401     0.14300
C3415       C  0.90571235  0.37961314  0.86831103    -0.23300
H3416       H  0.88973255  0.35532819  0.92550766     0.15600
H3417       H  0.82893301  0.26911244  0.84639915     0.15700
C3418       C  0.80862478  0.24676665  0.90362353    -0.23300
H3419       H  0.91307628  0.39770682  0.88877688     0.05900
H3420       H  0.88832191  0.39831525  0.85198761     0.09100
H3421       H  0.93342126  0.37021699  0.85788979     0.09100
H3422       H  0.78393992  0.25844384  0.91697501     0.05700
H3423       H  0.82466417  0.22430211  0.91753594     0.09100
H3424       H  0.79636782  0.23186462  0.88287499     0.05900
C3425       C  0.87143615  0.34246394  0.58858850    -0.19900
C3426       C  0.85024831  0.30924967  0.57883249    -0.06500
C3427       C  0.83200578  0.28550777  0.60169280     0.14400
C3428       C  0.83871479  0.29340361  0.63320306    -0.20000
C3429       C  0.86222210  0.32497555  0.64278080    -0.06500
C3430       C  0.87654352  0.35112393  0.62009077     0.14300
C3431       C  0.89651966  0.38865376  0.62898221    -0.23300
H3432       H  0.88487202  0.36129497  0.57146298     0.15600
H3433       H  0.82571981  0.27471746  0.65062271     0.15700
C3434       C  0.80567174  0.25156259  0.59337757    -0.23300
H3435       H  0.92467272  0.38118566  0.64036794     0.05900
H3436       H  0.87789452  0.40584035  0.64474871     0.09100
H3437       H  0.90237006  0.40740749  0.60850102     0.09100
H3438       H  0.82205031  0.22864626  0.58104585     0.09100
H3439       H  0.78136194  0.26267888  0.57846855     0.09100
H3440       H  0.79287760  0.23737635  0.61407262     0.05900
C3441       C  0.88072659  0.15672778  0.91317878    -0.19900
C3442       C  0.90159839  0.19016001  0.92298856    -0.06500
C3443       C  0.92069647  0.21335960  0.90019763     0.14400
C3444       C  0.91537147  0.20448840  0.86862767    -0.20000
C3445       C  0.89226554  0.17260589  0.85892831    -0.06500
C3446       C  0.87693435  0.14715387  0.88171518     0.14300
C3447       C  0.85715917  0.10940462  0.87302215    -0.23300
H3448       H  0.86664166  0.13831278  0.93022626     0.15600
H3449       H  0.92895476  0.22278140  0.85127010     0.15700
C3450       C  0.94641625  0.24781467  0.90860402    -0.23300
H3451       H  0.85057552  0.09112998  0.89363187     0.05900
H3452       H  0.87622977  0.09179704  0.85786968     0.09100
H3453       H  0.82935175  0.11662230  0.86104821     0.09100
H3454       H  0.97071676  0.23744538  0.92390759     0.09100
H3455       H  0.92937105  0.27067379  0.92048386     0.09100
H3456       H  0.95941306  0.26190400  0.88796426     0.05900
C3457       C  0.90940738  0.21087084  0.63723039    -0.19900
C3458       C  0.88536416  0.17984631  0.64693957    -0.06500
C3459       C  0.86950489  0.15426245  0.62440719     0.14400
C3460       C  0.87520976  0.16194293  0.59296047    -0.20000
C3461       C  0.89774070  0.19394931  0.58299168    -0.06500
C3462       C  0.91616826  0.21811895  0.60570074     0.14300
C3463       C  0.94282480  0.25170131  0.59723248    -0.23300
H3464       H  0.92325793  0.22927884  0.65459903     0.15600
H3465       H  0.86129043  0.14309992  0.57590437     0.15700
C3466       C  0.84782190  0.11780641  0.63334213    -0.23300
H3467       H  0.95514186  0.26665786  0.61793805     0.05900
H3468       H  0.92670474  0.27417066  0.58339299     0.09100
H3469       H  0.96759368  0.24015528  0.58384676     0.09100
H3470       H  0.82017932  0.12657200  0.64412757     0.09100
H3471       H  0.86602388  0.09955349  0.64944642     0.09100
H3472       H  0.84055090  0.09955141  0.61294813     0.05900
O3473       O  0.86237965  0.69805806  0.46789142    -0.72600
O3474       O  0.82778629  0.77604037  0.03229595    -0.73600
O3475       O  0.82983995  0.77194788  0.46468111    -0.62200
O3476       O  0.86250051  0.70314045  0.03611875    -0.70600
O3477       O  0.92068872  0.73158208  0.03781286    -0.70100
O3478       O  0.88886528  0.79862865  0.46621482    -0.61400
O3479       O  0.88613653  0.80424756  0.03290194    -0.73900
O3480       O  0.92143794  0.72469101  0.46842492    -0.72700
Cu3481     Cu  0.84406032  0.73664320  0.00017477     1.04600
Cu3482     Cu  0.90654365  0.76362449  0.50130474     1.04300
C3483       C  0.89550880  0.70310977  0.45527473     0.93600
C3484       C  0.85312335  0.79830301  0.04545808     0.92800
C3485       C  0.85643693  0.79260945  0.45192227     0.84900
C3486       C  0.89458341  0.71032809  0.05062694     0.91200
O3487       O  0.79517192  0.52852487  0.46715725    -0.72600
O3488       O  0.77029986  0.94980795  0.03281157    -0.73600
O3489       O  0.76870572  0.95404471  0.46441225    -0.62200
O3490       O  0.79795852  0.52740401  0.03506805    -0.70600
O3491       O  0.98057215  0.54804870  0.03485055    -0.70100
O3492       O  0.95406297  0.97009773  0.46374579    -0.61400
O3493       O  0.95422700  0.97040911  0.03313110    -0.73900
O3494       O  0.98054205  0.54492350  0.46724005    -0.72700
Cu3495     Cu  0.78603668  0.49070843  0.99984318     1.04600
Cu3496     Cu  0.96546109  0.51206053  0.99978544     1.04300
C3497       C  0.01390990  0.54239256  0.45457460     0.93600
C3498       C  0.98197320  0.95063233  0.04610463     0.92800
C3499       C  0.98180874  0.95149585  0.45082391     0.84900
C3500       C  0.01405032  0.54506566  0.04834541     0.91200
C3501       C  0.96867076  0.62071298  0.25196338     0.30400
C3502       C  0.79842151  0.62411749  0.25150225     0.30400
C3503       C  0.98801881  0.60189460  0.22368962    -0.05800
C3504       C  0.98679245  0.66262020  0.25237635    -0.06600
C3505       C  0.98997648  0.60001165  0.27927611    -0.06500
C3506       C  0.77953379  0.60329226  0.22354005    -0.05800
C3507       C  0.77730016  0.66462520  0.25127236    -0.06600
C3508       C  0.77956023  0.60215833  0.27858832    -0.06500
C3509       C  0.79261001  0.58869495  0.19606687    -0.31900
N3510       N  0.00856034  0.58005817  0.17819820     0.14600
C3511       C  0.97629102  0.58674725  0.19538552    -0.31900
H3512       H  0.94647894  0.58263665  0.18740371     0.16600
C3513       C  0.78699781  0.70450400  0.25064390    -0.30900
N3514       N  0.00346144  0.72645463  0.25095430     0.13300
C3515       C  0.97276903  0.70104697  0.25200452    -0.30800
C3516       C  0.79250292  0.58642086  0.30625184    -0.31100
N3517       N  0.01336194  0.57546524  0.32394249     0.13900
H3518       H  0.82260316  0.58450102  0.31408018     0.16500
C3519       C  0.98010388  0.58340631  0.30737310    -0.31100
H3520       H  0.95087590  0.57986555  0.31610818     0.16500
H3521       H  0.94238975  0.70973186  0.25203172     0.16500
H3522       H  0.82267027  0.58651339  0.18931047     0.16600
H3523       H  0.81633039  0.71635150  0.25063484     0.16500
C3524       C  0.78508625  0.87421433  0.24917532     0.30400
C3525       C  0.95532628  0.87066713  0.24877748     0.30400
C3526       C  0.76434805  0.89486322  0.22140534    -0.05800
C3527       C  0.76707256  0.83228563  0.24852361    -0.06600
C3528       C  0.76499481  0.89299397  0.27720465    -0.06500
C3529       C  0.97331264  0.89318697  0.22153779    -0.05800
C3530       C  0.97658318  0.83026456  0.24828235    -0.06600
C3531       C  0.97483859  0.89122905  0.27650167    -0.06500
C3532       C  0.95936857  0.91027577  0.19463978    -0.31900
N3533       N  0.98991644  0.92088117  0.17694039     0.14600
C3534       C  0.77457669  0.91145278  0.19326059    -0.31900
H3535       H  0.80386588  0.91511502  0.18476872     0.16600
C3536       C  0.96699825  0.79036523  0.24917138    -0.30900
N3537       N  0.00063161  0.76843763  0.24945324     0.13300
C3538       C  0.78121386  0.79390150  0.24874690    -0.30800
C3539       C  0.96221549  0.90690179  0.30371126    -0.31100
N3540       N  0.99365881  0.91643303  0.32151421     0.13900
H3541       H  0.93228475  0.90935955  0.31074368     0.16500
C3542       C  0.77573212  0.90879819  0.30558253    -0.31100
H3543       H  0.80532209  0.91322181  0.31408077     0.16500
H3544       H  0.81161962  0.78526016  0.24915619     0.16500
H3545       H  0.92899161  0.91227303  0.18754822     0.16600
H3546       H  0.93770750  0.77848411  0.24998809     0.16500
C3547       C  0.83029612  0.87417778  0.24925367     0.30400
C3548       C  0.91003117  0.87059560  0.24891920     0.30400
C3549       C  0.84821001  0.85396517  0.22119858    -0.05800
C3550       C  0.85148485  0.91457561  0.25002089    -0.06600
C3551       C  0.84974652  0.85159050  0.27633655    -0.06500
C3552       C  0.88874126  0.85229158  0.22056023    -0.05800
C3553       C  0.89201221  0.91251148  0.24981692    -0.06600
C3554       C  0.89029436  0.84979583  0.27660374    -0.06500
C3555       C  0.89813162  0.83919861  0.19125413    -0.31900
N3556       N  0.86442678  0.83342439  0.17461730     0.14600
C3557       C  0.83403572  0.84083997  0.19317725    -0.31900
H3558       H  0.80367172  0.83924431  0.18583572     0.16600
C3559       C  0.90612307  0.95085028  0.25045741    -0.30900
N3560       N  0.87546736  0.97632200  0.25109882     0.13300
C3561       C  0.84183806  0.95445536  0.25085001    -0.30800
C3562       C  0.90135924  0.83406467  0.30521095    -0.31100
N3563       N  0.86863028  0.82680174  0.32189239     0.13900
H3564       H  0.93093543  0.83035390  0.31384286     0.16500
C3565       C  0.83717251  0.83615121  0.30388554    -0.31100
H3566       H  0.80722523  0.83431453  0.31122166     0.16500
H3567       H  0.81253560  0.96636806  0.25116692     0.16500
H3568       H  0.92717058  0.83617504  0.18218445     0.16600
H3569       H  0.93651279  0.95947046  0.25036741     0.16500
C3570       C  0.84372919  0.62410641  0.25212441     0.30400
C3571       C  0.92346759  0.62060569  0.25223253     0.30400
C3572       C  0.86474345  0.64248009  0.28059475    -0.05800
C3573       C  0.86176763  0.58218597  0.25142874    -0.06600
C3574       C  0.86363660  0.64498689  0.22469103    -0.06500
C3575       C  0.90532996  0.64064979  0.28035518    -0.05800
C3576       C  0.90231665  0.58011950  0.25143228    -0.06600
C3577       C  0.90410064  0.64327459  0.22505995    -0.06500
C3578       C  0.91904744  0.65394988  0.30854720    -0.31900
N3579       N  0.88823845  0.66217037  0.32659511     0.14600
C3580       C  0.85488514  0.65647150  0.30949655    -0.31900
H3581       H  0.82561444  0.66048408  0.31792818     0.16600
C3582       C  0.91192441  0.54017964  0.25105685    -0.30900
N3583       N  0.87826845  0.51833305  0.25082528     0.13300
C3584       C  0.84762915  0.54385280  0.25110230    -0.30800
C3585       C  0.91666773  0.66041669  0.19803091    -0.31100
N3586       N  0.88519174  0.67074173  0.18031266     0.13900
H3587       H  0.94666398  0.66311004  0.19092692     0.16500
C3588       C  0.85254781  0.66237150  0.19672730    -0.31100
H3589       H  0.82290577  0.66668695  0.18829444     0.16500
H3590       H  0.81722114  0.53528548  0.25112310     0.16500
H3591       H  0.94921247  0.65539908  0.31620602     0.16600
H3592       H  0.94124696  0.52820162  0.25105131     0.16500
C3593       C  0.75424396  0.91164066  0.40897571    -0.19900
C3594       C  0.97866912  0.93945896  0.41778827    -0.06500
C3595       C  0.96015239  0.96360229  0.39473708     0.14400
C3596       C  0.96723088  0.95658162  0.36329337    -0.20000
C3597       C  0.99121457  0.92545033  0.35398227    -0.06500
C3598       C  0.75823024  0.90206255  0.37767492     0.14300
C3599       C  0.78026481  0.86546747  0.36974959    -0.23300
H3600       H  0.76986401  0.89437419  0.42639795     0.15600
H3601       H  0.95349300  0.97508182  0.34569096     0.15700
C3602       C  0.93278568  0.99671606  0.40271082    -0.23300
H3603       H  0.78871721  0.84836933  0.39074173     0.05900
H3604       H  0.80725327  0.87384924  0.35777775     0.09100
H3605       H  0.76180160  0.84612218  0.35494627     0.09100
H3606       H  0.94809038  0.01895424  0.41694843     0.09100
H3607       H  0.90757915  0.98471759  0.41550886     0.09100
H3608       H  0.92109856  0.01214090  0.38177174     0.05900
C3609       C  0.96081681  0.96435325  0.09942915    -0.19900
C3610       C  0.97879516  0.93799117  0.07903356    -0.06500
C3611       C  0.75308537  0.90590017  0.09083725     0.14400
C3612       C  0.75628676  0.90060344  0.12311741    -0.20000
C3613       C  0.98690998  0.92823598  0.14410809    -0.06500
C3614       C  0.96437053  0.95972781  0.13169032     0.14300
C3615       C  0.94490679  0.98904509  0.15238918    -0.23300
H3616       H  0.94521531  0.98978194  0.09012677     0.15600
H3617       H  0.77163418  0.87509056  0.13253276     0.15700
C3618       C  0.76973224  0.87514923  0.07002365    -0.23300
H3619       H  0.93131908  0.01373750  0.13897785     0.05900
H3620       H  0.96674746  0.00165309  0.16873405     0.09100
H3621       H  0.92145662  0.97447610  0.16561423     0.09100
H3622       H  0.79548129  0.88697576  0.05781766     0.09100
H3623       H  0.74712604  0.86565724  0.05296596     0.09100
H3624       H  0.77889034  0.84865136  0.08339349     0.05900
C3625       C  0.78804397  0.53383588  0.40132232    -0.19900
C3626       C  0.01843183  0.55592223  0.42192802    -0.06500
C3627       C  0.99783960  0.58853862  0.40906774     0.14400
C3628       C  0.99659095  0.59414122  0.37680430    -0.20000
C3629       C  0.01537450  0.56803263  0.35683790    -0.06500
C3630       C  0.78440708  0.53794111  0.36911015     0.14300
C3631       C  0.80227361  0.50736600  0.34861979    -0.23300
H3632       H  0.80238529  0.50774732  0.41080513     0.15600
H3633       H  0.98080982  0.61913200  0.36695783     0.15700
C3634       C  0.97754957  0.61784149  0.42916518    -0.23300
H3635       H  0.81451064  0.48211554  0.36218164     0.05900
H3636       H  0.82640538  0.52052480  0.33529656     0.09100
H3637       H  0.77979695  0.49581605  0.33230024     0.09100
H3638       H  0.99822740  0.62895856  0.44708735     0.09100
H3639       H  0.95195712  0.60400035  0.44026985     0.09100
H3640       H  0.96695469  0.64357386  0.41546173     0.05900
C3641       C  0.99480669  0.58836232  0.09164214    -0.19900
C3642       C  0.01817520  0.55737067  0.08126580    -0.06500
C3643       C  0.79493610  0.53520193  0.10361001     0.14400
C3644       C  0.78876765  0.54208483  0.13515984    -0.20000
C3645       C  0.00986143  0.57160222  0.14553882    -0.06500
C3646       C  0.99153483  0.59647424  0.12323705     0.14300
C3647       C  0.96990128  0.63269648  0.13249742    -0.23300
H3648       H  0.97886690  0.60634395  0.07488067     0.15600
H3649       H  0.80340470  0.52383340  0.15247671     0.15700
C3650       C  0.82264065  0.50260028  0.09507684    -0.23300
H3651       H  0.96076023  0.65070047  0.11215328     0.05900
H3652       H  0.98890201  0.65136233  0.14741722     0.09100
H3653       H  0.94338547  0.62365862  0.14479963     0.09100
H3654       H  0.84684545  0.51495908  0.08129242     0.09100
H3655       H  0.80707002  0.47966995  0.08166518     0.09100
H3656       H  0.83585008  0.48790849  0.11576872     0.05900
C3657       C  0.87590366  0.83650636  0.40858968    -0.19900
C3658       C  0.85319408  0.80463744  0.41868769    -0.06500
C3659       C  0.83496097  0.78032704  0.39599835     0.14400
C3660       C  0.84192264  0.78723819  0.36443369    -0.20000
C3661       C  0.86611625  0.81809099  0.35457994    -0.06500
C3662       C  0.88188149  0.84386716  0.37706316     0.14300
C3663       C  0.90388429  0.88010453  0.36797062    -0.23300
H3664       H  0.88975640  0.85543472  0.42557056     0.15600
H3665       H  0.82813329  0.76870647  0.34717712     0.15700
C3666       C  0.80809797  0.74704617  0.40457764    -0.23300
H3667       H  0.91122102  0.89853807  0.38825712     0.05900
H3668       H  0.88591921  0.89830990  0.35168101     0.09100
H3669       H  0.93149452  0.87106767  0.35727104     0.09100
H3670       H  0.78382120  0.75905805  0.41821172     0.05700
H3671       H  0.82410172  0.72438920  0.41830191     0.09100
H3672       H  0.79526860  0.73231829  0.38396890     0.05900
C3673       C  0.86855665  0.84517097  0.08796363    -0.19900
C3674       C  0.84795998  0.81172629  0.07787170    -0.06500
C3675       C  0.83003610  0.78730294  0.10045439     0.14400
C3676       C  0.83675990  0.79464232  0.13200983    -0.20000
C3677       C  0.85995740  0.82625306  0.14190939    -0.06500
C3678       C  0.87375238  0.85319959  0.11955254     0.14300
C3679       C  0.89351412  0.89070340  0.12888956    -0.23300
H3680       H  0.88164233  0.86458193  0.07101530     0.15600
H3681       H  0.82410606  0.77539158  0.14924316     0.15700
C3682       C  0.80397398  0.75325503  0.09181571    -0.23300
H3683       H  0.92183340  0.88316818  0.13996275     0.05900
H3684       H  0.87491163  0.90731011  0.14504670     0.09100
H3685       H  0.89912155  0.91006842  0.10867605     0.09100
H3686       H  0.82059257  0.73054271  0.07946259     0.09100
H3687       H  0.77965839  0.76431939  0.07687523     0.09100
H3688       H  0.79113128  0.73878102  0.11236816     0.05900
C3689       C  0.87912991  0.65571443  0.41335092    -0.19900
C3690       C  0.90068055  0.68871349  0.42308257    -0.06500
C3691       C  0.92027934  0.71148969  0.40033932     0.14400
C3692       C  0.91525005  0.70235186  0.36885905    -0.20000
C3693       C  0.89164800  0.67087307  0.35919840    -0.06500
C3694       C  0.87521551  0.64610512  0.38194207     0.14300
C3695       C  0.85399716  0.60914635  0.37328735    -0.23300
H3696       H  0.86443171  0.63777406  0.43043293     0.15600
H3697       H  0.92939044  0.72023631  0.35147709     0.15700
C3698       C  0.94598039  0.74598097  0.40867461    -0.23300
H3699       H  0.84632194  0.59142890  0.39394273     0.05900
H3700       H  0.87253264  0.59055915  0.35845577     0.09100
H3701       H  0.82664966  0.61740667  0.36101591     0.09100
H3702       H  0.96999476  0.73575307  0.42429177     0.09100
H3703       H  0.92878008  0.76906732  0.42016900     0.09100
H3704       H  0.95933862  0.75974792  0.38804773     0.05900
C3705       C  0.90988471  0.71342700  0.13855198    -0.19900
C3706       C  0.88721069  0.68109242  0.14784521    -0.06500
C3707       C  0.87176255  0.65593934  0.12480679     0.14400
C3708       C  0.87688148  0.66488195  0.09343738    -0.20000
C3709       C  0.89819745  0.69796280  0.08386283    -0.06500
C3710       C  0.91568158  0.72221349  0.10701708     0.14300
C3711       C  0.94014554  0.75760010  0.09897271    -0.23300
H3712       H  0.92319866  0.73178772  0.15617969     0.15600
H3713       H  0.86348622  0.64607536  0.07612900     0.15700
C3714       C  0.85096102  0.61867178  0.13311737    -0.23300
H3715       H  0.95165747  0.77279339  0.11985850     0.05900
H3716       H  0.92262027  0.77927979  0.08544271     0.09100
H3717       H  0.96535346  0.74796518  0.08527777     0.09100
H3718       H  0.82327140  0.62650217  0.14422434     0.09100
H3719       H  0.86959833  0.60031335  0.14882438     0.09100
H3720       H  0.84382690  0.60088282  0.11242540     0.05900
O3721       O  0.86415640  0.69907708  0.96836670    -0.72600
O3722       O  0.82857449  0.77391254  0.53327300    -0.73600
O3723       O  0.82963807  0.77187200  0.96388547    -0.62200
O3724       O  0.86147291  0.70020749  0.53534573    -0.70600
O3725       O  0.92042523  0.72708067  0.53682163    -0.70100
O3726       O  0.88782506  0.80037828  0.96565162    -0.61400
O3727       O  0.88757795  0.80071123  0.53370437    -0.73900
O3728       O  0.92237590  0.72747710  0.96869846    -0.72700
Cu3729     Cu  0.84354991  0.73520840  0.50027555     1.04600
Cu3730     Cu  0.90623772  0.76677713  0.00127375     1.04300
C3731       C  0.89702132  0.70513260  0.95555424     0.93600
C3732       C  0.85459956  0.79529341  0.54648824     0.92800
C3733       C  0.85578609  0.79311664  0.95116571     0.84900
C3734       C  0.89397658  0.70627980  0.54955993     0.91200
O3735       O  0.79715921  0.53149006  0.96704751    -0.72600
O3736       O  0.76980273  0.94944634  0.53225508    -0.73600
O3737       O  0.77044971  0.95376019  0.96494394    -0.62200
O3738       O  0.79590156  0.52402529  0.53552758    -0.70600
O3739       O  0.98035983  0.54107424  0.53512987    -0.70100
O3740       O  0.95412643  0.97316374  0.96428142    -0.61400
O3741       O  0.95376231  0.96580236  0.53256429    -0.73900
O3742       O  0.98031215  0.55118642  0.96672812    -0.72700
Cu3743     Cu  0.78312088  0.48789506  0.49981386     1.04600
Cu3744     Cu  0.96465304  0.50573830  0.49995377     1.04300
C3745       C  0.01348587  0.54871671  0.95376505     0.93600
C3746       C  0.98141643  0.94586704  0.54555668     0.92800
C3747       C  0.98176366  0.95417101  0.95151303     0.84900
C3748       C  0.01357224  0.53745417  0.54891132     0.91200
C3749       C  0.96753930  0.62268930  0.75073068     0.30400
C3750       C  0.79745203  0.62589538  0.75143907     0.30400
C3751       C  0.98697311  0.60353654  0.72255025    -0.05800
C3752       C  0.98586021  0.66448021  0.75107293    -0.06600
C3753       C  0.98846887  0.60195184  0.77806529    -0.06500
C3754       C  0.77844281  0.60477661  0.72362975    -0.05800
C3755       C  0.77632257  0.66636389  0.75113811    -0.06600
C3756       C  0.77879984  0.60421875  0.77860039    -0.06500
C3757       C  0.79140357  0.58912414  0.69645059    -0.31900
N3758       N  0.00793444  0.57981204  0.67766795     0.14600
C3759       C  0.97551246  0.58725235  0.69455366    -0.31900
H3760       H  0.94571876  0.58248059  0.68668897     0.16600
C3761       C  0.78619302  0.70615424  0.75066030    -0.30900
N3762       N  0.00306460  0.72816387  0.75031861     0.13300
C3763       C  0.97212497  0.70300646  0.75085607    -0.30800
C3764       C  0.79226674  0.58881986  0.80614028    -0.31100
N3765       N  0.01105934  0.57746967  0.82279565     0.13900
H3766       H  0.82243788  0.58719029  0.81362919     0.16500
C3767       C  0.97806741  0.58544615  0.80600974    -0.31100
H3768       H  0.94872114  0.58212024  0.81454072     0.16500
H3769       H  0.94181875  0.71191253  0.75080225     0.16500
H3770       H  0.82160105  0.58654069  0.68973733     0.16600
H3771       H  0.81555300  0.71782952  0.75070151     0.16500
C3772       C  0.78590211  0.87560139  0.74917726     0.30400
C3773       C  0.95596997  0.87247631  0.74920872     0.30400
C3774       C  0.76537090  0.89627649  0.72142899    -0.05800
C3775       C  0.76749492  0.83389409  0.74869084    -0.06600
C3776       C  0.76613816  0.89475196  0.77714026    -0.06500
C3777       C  0.97409590  0.89482123  0.72201852    -0.05800
C3778       C  0.97710180  0.83207771  0.74879235    -0.06600
C3779       C  0.97536045  0.89299941  0.77697945    -0.06500
C3780       C  0.96020846  0.91074928  0.69471056    -0.31900
N3781       N  0.99079788  0.92065734  0.67683748     0.14600
C3782       C  0.77590424  0.91220936  0.69320100    -0.31900
H3783       H  0.80529552  0.91522890  0.68465823     0.16600
C3784       C  0.96719970  0.79230476  0.74929493    -0.30900
N3785       N  0.00065661  0.77017045  0.74943524     0.13300
C3786       C  0.78120558  0.79538392  0.74896711    -0.30800
C3787       C  0.96252816  0.90830164  0.80424946    -0.31100
N3788       N  0.99380070  0.91736435  0.82239028     0.13900
H3789       H  0.93247976  0.91076074  0.81109336     0.16500
C3790       C  0.77730113  0.91035659  0.80544569    -0.31100
H3791       H  0.80702615  0.91442523  0.81381003     0.16500
H3792       H  0.81150623  0.78645323  0.74931508     0.16500
H3793       H  0.92992868  0.91216915  0.68745833     0.16600
H3794       H  0.93781762  0.78063546  0.74981027     0.16500
C3795       C  0.83101676  0.87548616  0.74921054     0.30400
C3796       C  0.91070289  0.87233783  0.74913660     0.30400
C3797       C  0.84909892  0.85504253  0.72135378    -0.05800
C3798       C  0.85193686  0.91600049  0.74974739    -0.06600
C3799       C  0.85044132  0.85320859  0.77641912    -0.06500
C3800       C  0.88963972  0.85348579  0.72090534    -0.05800
C3801       C  0.89245958  0.91422135  0.74969204    -0.06600
C3802       C  0.89097206  0.85161803  0.77679098    -0.06500
C3803       C  0.89927792  0.83893713  0.69211921    -0.31900
N3804       N  0.86570660  0.83237014  0.67549237     0.14600
C3805       C  0.83512748  0.84072252  0.69364188    -0.31900
H3806       H  0.80481631  0.83894218  0.68619992     0.16600
C3807       C  0.90621181  0.95273656  0.75003033    -0.30900
N3808       N  0.87528716  0.97797559  0.75031140     0.13300
C3809       C  0.84189730  0.95579391  0.75014421    -0.30800
C3810       C  0.90200036  0.83492684  0.80502113    -0.31100
N3811       N  0.86923704  0.82694899  0.82142615     0.13900
H3812       H  0.93161914  0.83100656  0.81366829     0.16500
C3813       C  0.83778908  0.83678348  0.80357704    -0.31100
H3814       H  0.80784566  0.83456006  0.81077905     0.16500
H3815       H  0.81245873  0.96746011  0.75022337     0.16500
H3816       H  0.92841627  0.83542802  0.68334566     0.16600
H3817       H  0.93652567  0.96159408  0.75003046     0.16500
C3818       C  0.84277610  0.62596147  0.75213048     0.30400
C3819       C  0.92244486  0.62276066  0.75153468     0.30400
C3820       C  0.86412717  0.64480916  0.78044225    -0.05800
C3821       C  0.86098687  0.58402473  0.75161970    -0.06600
C3822       C  0.86229290  0.64654015  0.72436140    -0.06500
C3823       C  0.90472188  0.64323547  0.77972886    -0.05800
C3824       C  0.90150482  0.58224546  0.75125522    -0.06600
C3825       C  0.90273654  0.64488653  0.72443058    -0.06500
C3826       C  0.91895737  0.65679791  0.80775164    -0.31900
N3827       N  0.88858142  0.66475467  0.82631676     0.14600
C3828       C  0.85489053  0.65860760  0.80965721    -0.31900
H3829       H  0.82581726  0.66200008  0.81866564     0.16600
C3830       C  0.91157657  0.54244770  0.75092956    -0.30900
N3831       N  0.87821280  0.52022758  0.75112855     0.13300
C3832       C  0.84726540  0.54546046  0.75158592    -0.30800
C3833       C  0.91505583  0.66065596  0.69691926    -0.31100
N3834       N  0.88341504  0.67030381  0.67923921     0.13900
H3835       H  0.94489266  0.66261934  0.68938732     0.16500
C3836       C  0.85090644  0.66276093  0.69604375    -0.31100
H3837       H  0.82116172  0.66675887  0.68766120     0.16500
H3838       H  0.81697773  0.53657486  0.75190592     0.16500
H3839       H  0.94935077  0.65840945  0.81500581     0.16600
H3840       H  0.94096387  0.53083627  0.75060037     0.16500
C3841       C  0.75666211  0.91262228  0.90889579    -0.19900
C3842       C  0.97842327  0.94120629  0.91866718    -0.06500
C3843       C  0.95899320  0.96432187  0.89545722     0.14400
C3844       C  0.96603699  0.95695579  0.86404718    -0.20000
C3845       C  0.99093483  0.92644674  0.85487898    -0.06500
C3846       C  0.76052810  0.90337630  0.87752811     0.14300
C3847       C  0.78231052  0.86675835  0.86929281    -0.23300
H3848       H  0.77230774  0.89513695  0.92618809     0.15600
H3849       H  0.95168543  0.97484133  0.84634071     0.15700
C3850       C  0.93082549  0.99683642  0.90323893    -0.23300
H3851       H  0.79080092  0.84941021  0.89014096     0.05900
H3852       H  0.80922462  0.87514129  0.85722221     0.09100
H3853       H  0.76364383  0.84765252  0.85446648     0.09100
H3854       H  0.94573781  0.01989519  0.91695543     0.09100
H3855       H  0.90619604  0.98442103  0.91650410     0.09100
H3856       H  0.91832727  0.01137305  0.88220556     0.05900
C3857       C  0.96087556  0.96114526  0.59864374    -0.19900
C3858       C  0.97846614  0.93399558  0.57867651    -0.06500
C3859       C  0.75420414  0.90602681  0.59088508     0.14400
C3860       C  0.75768952  0.90110810  0.62317262    -0.20000
C3861       C  0.98771738  0.92681732  0.64387369    -0.06500
C3862       C  0.96496735  0.95778843  0.63093221     0.14300
C3863       C  0.94570921  0.98784414  0.65111122    -0.23300
H3864       H  0.94510285  0.98624405  0.58893652     0.15600
H3865       H  0.77299652  0.87561457  0.63270158     0.15700
C3866       C  0.77100684  0.87515622  0.57020762    -0.23300
H3867       H  0.93209137  0.01212497  0.63726694     0.05900
H3868       H  0.96765838  0.00092813  0.66712524     0.09100
H3869       H  0.92231089  0.97379016  0.66471255     0.09100
H3870       H  0.79607734  0.88730823  0.55734917     0.09100
H3871       H  0.74814721  0.86472709  0.55371240     0.09100
H3872       H  0.78139728  0.84920452  0.58374225     0.05900
C3873       C  0.79035944  0.53754900  0.90148166    -0.19900
C3874       C  0.01706944  0.56076597  0.92077894    -0.06500
C3875       C  0.99700131  0.59344904  0.90760919     0.14400
C3876       C  0.99486552  0.59785533  0.87528062    -0.20000
C3877       C  0.01270332  0.57065680  0.85567143    -0.06500
C3878       C  0.78660267  0.54157006  0.86930403     0.14300
C3879       C  0.80571898  0.51166867  0.84889166    -0.23300
H3880       H  0.80578604  0.51205689  0.91095114     0.15600
H3881       H  0.97955375  0.62296381  0.86512799     0.15700
C3882       C  0.97882789  0.62431655  0.92748851    -0.23300
H3883       H  0.81865154  0.48681598  0.86251402     0.05900
H3884       H  0.82964814  0.52560207  0.83580902     0.09100
H3885       H  0.78386108  0.49936226  0.83241837     0.09100
H3886       H  0.00070407  0.63526372  0.94456210     0.09100
H3887       H  0.95327184  0.61196918  0.93963664     0.09100
H3888       H  0.96887611  0.64993374  0.91338169     0.05900
C3889       C  0.99372155  0.58250226  0.59091079    -0.19900
C3890       C  0.01772077  0.55143048  0.58149240    -0.06500
C3891       C  0.79329195  0.53313845  0.60436622     0.14400
C3892       C  0.78752117  0.54082323  0.63594576    -0.20000
C3893       C  0.00956820  0.56955784  0.64528218    -0.06500
C3894       C  0.99023648  0.59237931  0.62217541     0.14300
C3895       C  0.96728785  0.62838825  0.63012716    -0.23300
H3896       H  0.97721576  0.59914806  0.57358503     0.15600
H3897       H  0.80233822  0.52299940  0.65337906     0.15700
C3898       C  0.82056503  0.50007266  0.59607064    -0.23300
H3899       H  0.95766994  0.64483175  0.60911941     0.05900
H3900       H  0.98557149  0.64858207  0.64432307     0.09100
H3901       H  0.94092524  0.61944300  0.64272026     0.09100
H3902       H  0.84487110  0.51192981  0.58214721     0.09100
H3903       H  0.80467987  0.47717622  0.58282246     0.09100
H3904       H  0.83360683  0.48548633  0.61687347     0.05900
C3905       C  0.87480307  0.83698582  0.90793328    -0.19900
C3906       C  0.85269287  0.80462607  0.91787341    -0.06500
C3907       C  0.83568793  0.77952570  0.89511891     0.14400
C3908       C  0.84306994  0.78648741  0.86362894    -0.20000
C3909       C  0.86667444  0.81792430  0.85400018    -0.06500
C3910       C  0.88149805  0.84412644  0.87653452     0.14300
C3911       C  0.90320638  0.88063125  0.86759985    -0.23300
H3912       H  0.88776159  0.85644068  0.92498786     0.15600
H3913       H  0.83010509  0.76751655  0.84624760     0.15700
C3914       C  0.80984904  0.74530961  0.90353118    -0.23300
H3915       H  0.90986123  0.89931122  0.88788857     0.05900
H3916       H  0.88535633  0.89848749  0.85099452     0.09100
H3917       H  0.93120346  0.87191024  0.85733335     0.09100
H3918       H  0.78463333  0.75643439  0.91654099     0.05700
H3919       H  0.82625279  0.72352152  0.91781500     0.09100
H3920       H  0.79834808  0.72972352  0.88283255     0.05900
C3921       C  0.87090341  0.84199183  0.58880925    -0.19900
C3922       C  0.84996385  0.80869329  0.57897176    -0.06500
C3923       C  0.83185574  0.78466801  0.60173279     0.14400
C3924       C  0.83841704  0.79251103  0.63325762    -0.20000
C3925       C  0.86163421  0.82425178  0.64290191    -0.06500
C3926       C  0.87587593  0.85055987  0.62029902     0.14300
C3927       C  0.89573740  0.88811378  0.62926502    -0.23300
H3928       H  0.88422831  0.86102179  0.57172369     0.15600
H3929       H  0.82550457  0.77365890  0.65065111     0.15700
C3930       C  0.80574899  0.75058165  0.59329770    -0.23300
H3931       H  0.92395599  0.88062298  0.64052592     0.05900
H3932       H  0.87711539  0.90514659  0.64513035     0.09100
H3933       H  0.90149712  0.90701626  0.60884211     0.09100
H3934       H  0.82222897  0.72792337  0.58078393     0.09100
H3935       H  0.78128702  0.76160878  0.57851955     0.09100
H3936       H  0.79316827  0.73608422  0.61395549     0.05900
C3937       C  0.88223121  0.65705953  0.91341068    -0.19900
C3938       C  0.90224867  0.69109600  0.92310225    -0.06500
C3939       C  0.92041318  0.71480960  0.90013275     0.14400
C3940       C  0.91491159  0.70583928  0.86858347    -0.20000
C3941       C  0.89268214  0.67326805  0.85901832    -0.06500
C3942       C  0.87846070  0.64730692  0.88194381     0.14300
C3943       C  0.86002972  0.60880249  0.87335356    -0.23300
H3944       H  0.86890598  0.63818254  0.93059246     0.15600
H3945       H  0.92776484  0.72458434  0.85110242     0.15700
C3946       C  0.94547681  0.74979950  0.90836545    -0.23300
H3947       H  0.85399157  0.59037613  0.89401732     0.05900
H3948       H  0.87978590  0.59182922  0.85830204     0.09100
H3949       H  0.83205538  0.61488872  0.86124848     0.09100
H3950       H  0.97007199  0.73989610  0.92352357     0.09100
H3951       H  0.92815993  0.77225865  0.92040893     0.09100
H3952       H  0.95795723  0.76420164  0.88764153     0.05900
C3953       C  0.90950727  0.71064744  0.63695660    -0.19900
C3954       C  0.88551758  0.67958407  0.64666505    -0.06500
C3955       C  0.86950585  0.65414911  0.62407919     0.14400
C3956       C  0.87509306  0.66196252  0.59261947    -0.20000
C3957       C  0.89762081  0.69398986  0.58266252    -0.06500
C3958       C  0.91610174  0.71806974  0.60541752     0.14300
C3959       C  0.94257116  0.75182122  0.59699369    -0.23300
H3960       H  0.92341180  0.72900604  0.65434356     0.15600
H3961       H  0.86108841  0.64319119  0.57554200     0.15700
C3962       C  0.84777686  0.61772057  0.63298138    -0.23300
H3963       H  0.95488808  0.76674146  0.61771788     0.05900
H3964       H  0.92630198  0.77428518  0.58326013     0.09100
H3965       H  0.96733096  0.74047046  0.58351393     0.09100
H3966       H  0.82033502  0.62658511  0.64399796     0.09100
H3967       H  0.86603486  0.59928599  0.64890929     0.09100
H3968       H  0.84018206  0.59962584  0.61255755     0.05900
loop_ 
_geom_bond_atom_site_label_1 
_geom_bond_atom_site_label_2 
_geom_bond_distance 
_geom_bond_site_symmetry_2 
_ccdc_geom_bond_type 
O1           C11   1.279       .  A
O1         Cu257   2.010       .  S
O2           C12   1.277       .  A
O2           Cu9   2.011   1_554  S
O3           C13   1.277       .  A
O3         Cu257   2.011       .  S
O4           C14   1.279       .  A
O4           Cu9   2.005   1_554  S
O5           C14   1.279       .  A
O5         Cu258   2.020       .  S
O6           C13   1.280       .  A
O6          Cu10   2.013       .  S
O7           C12   1.279       .  A
O7         Cu258   2.006       .  S
O8           C11   1.279       .  A
O8          Cu10   2.023       .  S
Cu9         O249   2.010       .  S
Cu9         O251   2.008       .  S
Cu9        Cu258   2.362   1_556  S
Cu10        O253   2.028       .  S
Cu10        O255   2.010       .  S
Cu10       Cu257   2.361       .  S
C11         C218   1.496       .  S
C12         C202   1.492       .  S
C13         C186   1.493       .  S
C14         C237   1.497       .  S
O15        C3001   1.279       .  A
O15        Cu271   2.015   1_545  S
O16        C3002   1.278   1_455  A
O16        Cu519   2.007       .  S
O17        C3003   1.280   1_455  A
O17        Cu767   2.010       .  S
O18        C3004   1.279       .  A
O18         Cu23   2.024   1_545  S
O19          C28   1.280       .  A
O19         Cu24   2.011   1_554  S
O20          C27   1.281       .  A
O20        Cu768   2.034       .  S
O21          C26   1.281       .  A
O21        Cu520   2.024   1_554  S
O22          C25   1.277       .  A
O22        Cu272   2.009       .  S
Cu23        O263   2.019   1_564  S
Cu23        O512   2.007       .  S
Cu23        O761   2.008   1_554  S
Cu23      Cu3000   2.362   1_464  S
Cu24        O764   2.028   1_545  S
Cu24        O517   2.020   1_546  S
Cu24        O270   2.008       .  S
Cu24      Cu1015   2.364   1_546  S
C25        O1007   1.280       .  A
C25         C154   1.488       .  S
C26        O1008   1.279       .  A
C26         C138   1.497       .  S
C27        O1009   1.280       .  A
C27         C122   1.501       .  S
C28        O1010   1.278       .  A
C28         C170   1.492       .  S
C29          C31   1.546       .  S
C29          C33   1.544       .  S
C29          C32   1.547       .  S
C29          C99   1.547       .  S
C30          C34   1.542       .  S
C30          C36   1.541       .  S
C30          C35   1.550       .  S
C30          C98   1.549       .  S
C31          C39   1.387       .  A
C31        C1026   1.390       .  A
C32          C43   1.385       .  A
C32        C1027   1.390       .  A
C33          C47   1.387       .  A
C33        C1028   1.387       .  A
C34          C37   1.379       .  A
C34        C3007   1.388   1_455  A
C35          C41   1.393       .  A
C35        C3008   1.389   1_455  A
C36          C44   1.377       .  A
C36        C3009   1.387   1_455  A
C37          H50   1.076       .  S
C37        N3014   1.357       .  A
N38          C39   1.363       .  A
N38        C1029   1.356       .  A
N38         C173   1.447       .  S
C39          H40   1.082       .  S
C41          H51   1.081       .  S
C41        N3018   1.370       .  A
N42          C43   1.359       .  A
N42        C1033   1.370       .  A
N42          N65   1.425       .  S
C43          H49   1.082       .  S
C44          H46   1.081       .  S
C44        N3021   1.357       .  A
N45          C47   1.359       .  A
N45        C1036   1.355       .  A
N45         C157   1.442       .  S
C47          H48   1.080       .  S
C52          C54   1.545       .  S
C52          C56   1.551       .  S
C52          C55   1.552       .  S
C52          C75   1.549       .  S
C53          C57   1.541       .  S
C53          C59   1.542       .  S
C53          C58   1.551       .  S
C53          C76   1.552       .  S
C54          C62   1.387       .  A
C54        C3033   1.387   1_455  A
C55          C66   1.389       .  A
C55        C3034   1.389   1_455  A
C56          C70   1.390       .  A
C56        C3035   1.388   1_455  A
C57          C60   1.378       .  A
C57        C1046   1.387       .  A
C58          C64   1.392       .  A
C58        C1047   1.389       .  A
C59          C67   1.378       .  A
C59        C1048   1.388       .  A
C60          H73   1.077       .  S
C60          N61   1.357       .  A
N61        C1054   1.362       .  A
N61         C141   1.449       .  S
C62          H63   1.084       .  S
C62        N3037   1.362   1_455  A
C64          H74   1.081       .  S
C64          N65   1.370       .  A
N65        C1058   1.359       .  A
C66          H72   1.082       .  S
C66        N3041   1.360       .  A
C67          H69   1.078       .  S
C67          N68   1.356       .  A
N68        C1062   1.366       .  A
N68         C125   1.453       .  S
C70          H71   1.082       .  S
C70        N3044   1.366   1_455  A
C75          C77   1.540       .  S
C75          C79   1.536       .  S
C75          C78   1.549       .  S
C76          C80   1.550       .  S
C76          C82   1.549       .  S
C76          C81   1.548       .  S
C77          C85   1.379       .  A
C77          C80   1.391       .  A
C78          C89   1.389       .  A
C78          C81   1.390       .  A
C79          C93   1.375       .  A
C79          C82   1.388       .  A
C80          C83   1.388       .  A
C81          C87   1.385       .  A
C82          C90   1.390       .  A
C83          H96   1.080       .  S
C83          N84   1.365       .  A
N84          C85   1.354       .  A
N84         C205   1.448       .  S
C85          H86   1.081       .  S
C87          H97   1.081       .  S
C87          N88   1.358       .  A
N88          C89   1.369       .  A
N88         N607   1.424       .  S
C89          H95   1.083       .  S
C90          H92   1.081       .  S
C90          N91   1.364       .  A
N91          C93   1.353       .  A
N91         C189   1.447       .  S
C93          H94   1.080       .  S
C98         C100   1.550       .  S
C98         C102   1.548       .  S
C98         C101   1.548       .  S
C99         C103   1.541       .  S
C99         C105   1.538       .  S
C99         C104   1.550       .  S
C100        C108   1.389       .  A
C100        C103   1.388       .  A
C101        C112   1.385       .  A
C101        C104   1.389       .  A
C102        C116   1.388       .  A
C102        C105   1.388       .  A
C103        C106   1.381       .  A
C104        C110   1.392       .  A
C105        C113   1.377       .  A
C106        H119   1.081       .  S
C106        N107   1.354       .  A
N107        C108   1.364       .  A
N107        C221   1.449       .  S
C108        H109   1.082       .  S
C110        H120   1.082       .  S
C110        N111   1.369       .  A
N111        C112   1.359       .  A
N111        N584   1.425   1_545  S
C112        H118   1.080       .  S
C113        H115   1.076       .  S
C113        N114   1.357       .  A
N114        C116   1.364       .  A
N114        C234   1.450       .  S
C116        H117   1.081       .  S
C121        C126   1.405       .  A
C121       C3098   1.401   1_455  A
C121        H128   1.084       .  S
C122        C123   1.425       .  A
C122       C1113   1.403       .  A
C123        C130   1.507       .  S
C123        C124   1.414       .  A
C124        C125   1.405       .  A
C124        H129   1.084       .  S
C125       C1118   1.415       .  A
C126        C127   1.495       .  S
C126       C3101   1.413   1_455  A
C127        H131   1.108       .  S
C127        H132   1.104       .  S
C127        H133   1.110       .  S
C130        H134   1.106       .  S
C130        H135   1.110       .  S
C130        H136   1.112       .  S
C137        C138   1.411       .  A
C137        C142   1.411       .  A
C137        H144   1.084       .  S
C138       C1131   1.414       .  A
C139        C146   1.504       .  S
C139        C140   1.408       .  A
C139       C3114   1.417   1_455  A
C140       C3117   1.405   1_455  A
C140        H145   1.084       .  S
C141        C142   1.413       .  A
C141       C1132   1.407       .  A
C142        C143   1.506       .  S
C143        H147   1.111       .  S
C143        H148   1.109       .  S
C143        H149   1.109       .  S
C146        H150   1.109       .  S
C146        H151   1.107       .  S
C146        H152   1.110       .  S
C153        C158   1.408       .  A
C153       C3130   1.411       .  A
C153        H160   1.085       .  S
C154        C155   1.414       .  A
C154       C1145   1.409       .  A
C155        C162   1.504       .  S
C155        C156   1.410       .  A
C156        C157   1.407       .  A
C156        H161   1.085       .  S
C157       C1150   1.409       .  A
C158        C159   1.507       .  S
C158       C3133   1.412       .  A
C159        H163   1.111   1_545  S
C159        H164   1.108       .  S
C159        H165   1.109   1_545  S
C162        H166   1.111       .  S
C162        H167   1.109       .  S
C162        H168   1.108       .  S
C169        C170   1.401       .  A
C169        C174   1.404       .  A
C169        H176   1.084       .  S
C170       C1163   1.425       .  A
C171        C178   1.507   1_545  S
C171        C172   1.413       .  A
C171       C3146   1.426       .  A
C172       C3149   1.403       .  A
C172        H177   1.082       .  S
C173        C174   1.415       .  A
C173       C1164   1.402       .  A
C174        C175   1.496       .  S
C175        H179   1.109       .  S
C175        H180   1.111       .  S
C175        H181   1.105       .  S
C178        H182   1.110   1_565  S
C178        H183   1.106       .  S
C178        H184   1.111       .  S
C185        C186   1.400       .  A
C185        C190   1.404       .  A
C185        H192   1.084       .  S
C186        C187   1.425       .  A
C187        C194   1.505       .  S
C187        C188   1.410       .  A
C188        C189   1.401       .  A
C188        H193   1.083       .  S
C189        C190   1.414       .  A
C190        C191   1.492       .  S
C191        H195   1.109       .  S
C191        H196   1.111       .  S
C191        H197   1.103       .  S
C194        H198   1.109       .  S
C194        H199   1.105       .  S
C194        H200   1.111       .  S
C201        C202   1.401       .  A
C201        C206   1.404       .  A
C201        H208   1.085       .  S
C202        C203   1.423       .  A
C203        C210   1.506       .  S
C203        C204   1.409       .  A
C204        C205   1.402       .  A
C204        H209   1.084       .  S
C205        C206   1.414       .  A
C206        C207   1.494       .  S
C207        H211   1.103       .  S
C207        H212   1.110       .  S
C207        H213   1.109       .  S
C210        H214   1.107       .  S
C210        H215   1.110       .  S
C210        H216   1.111       .  S
C217        C218   1.402       .  A
C217        C222   1.405       .  A
C217        H224   1.084       .  S
C218        C219   1.424       .  A
C219        C226   1.504       .  S
C219        C220   1.411       .  A
C220        C221   1.402       .  A
C220        H225   1.084       .  S
C221        C222   1.414       .  A
C222        C223   1.496       .  S
C223        H227   1.110       .  S
C223        H228   1.111       .  S
C223        H229   1.104       .  S
C226        H230   1.107       .  S
C226        H231   1.105       .  S
C226        H232   1.112       .  S
C233        C234   1.402       .  A
C233        C238   1.411       .  A
C233        H240   1.082       .  S
C234        C235   1.415       .  A
C235        C242   1.494       .  S
C235        C236   1.406       .  A
C236        C237   1.401       .  A
C236        H241   1.082       .  S
C237        C238   1.424       .  A
C238        C239   1.504       .  S
C239        H243   1.111       .  S
C239        H244   1.107       .  S
C239        H245   1.109       .  S
C242        H246   1.105       .  S
C242        H247   1.109       .  S
C242        H248   1.108       .  S
O249        C259   1.279       .  A
O250        C260   1.279       .  A
O250       Cu257   2.023       .  S
O251        C261   1.277       .  A
O252        C262   1.278       .  A
O252       Cu257   1.998       .  S
O253        C262   1.281       .  A
O254        C261   1.279       .  A
O254       Cu258   2.003   1_556  S
O255        C260   1.279       .  A
O256        C259   1.280       .  A
O256       Cu258   2.025   1_556  S
C259        C466   1.498       .  S
C260        C450   1.497       .  S
C261        C434   1.488       .  S
C262        C485   1.497       .  S
O263       C3249   1.280       .  A
O264       C3250   1.276   1_455  A
O264       Cu767   2.004       .  S
O265       C3251   1.279   1_455  A
O265       Cu519   2.007   1_556  S
O266       C3252   1.280       .  A
O266       Cu271   2.024   1_545  S
O267        C276   1.280       .  A
O267       Cu272   2.013       .  S
O268        C275   1.281       .  A
O268       Cu520   2.032       .  S
O269        C274   1.281       .  A
O269       Cu768   2.026       .  S
O270        C273   1.278       .  A
Cu271       O760   2.006       .  S
Cu271       O513   2.011       .  S
Cu271     Cu3248   2.363   1_465  S
Cu272       O516   2.032   1_545  S
Cu272       O765   2.021   1_545  S
Cu272     Cu1263   2.363   1_545  S
C273       O1255   1.281       .  A
C273        C402   1.489       .  S
C274       O1256   1.277       .  A
C274        C386   1.494       .  S
C275       O1257   1.279       .  A
C275        C370   1.499       .  S
C276       O1258   1.279       .  A
C276        C418   1.496       .  S
C277        C279   1.549       .  S
C277        C281   1.547       .  S
C277        C280   1.550       .  S
C277        C347   1.548       .  S
C278        C282   1.541       .  S
C278        C284   1.540       .  S
C278        C283   1.547       .  S
C278        C346   1.548       .  S
C279        C287   1.389       .  A
C279       C1274   1.389       .  A
C280        C291   1.387       .  A
C280       C1275   1.390       .  A
C281        C295   1.389       .  A
C281       C1276   1.388       .  A
C282       C3255   1.389   1_455  A
C282        C285   1.378       .  A
C283       C3256   1.388   1_455  A
C283        C289   1.391       .  A
C284       C3257   1.386   1_455  A
C284        C292   1.377       .  A
C285        H298   1.080       .  S
C285       N3262   1.356       .  A
N286       C1277   1.356       .  A
N286        C287   1.365       .  A
N286        C421   1.452       .  S
C287        H288   1.080       .  S
C289        H299   1.081       .  S
C289       N3266   1.368       .  A
N290       C1281   1.368       .  A
N290        C291   1.361       .  A
N290        N313   1.425       .  S
C291        H297   1.081       .  S
C292        H294   1.078       .  S
C292       N3269   1.357       .  A
N293       C1284   1.355       .  A
N293        C295   1.361       .  A
N293        C405   1.442       .  S
C295        H296   1.083       .  S
C300        C302   1.546       .  S
C300        C304   1.553       .  S
C300        C303   1.552       .  S
C300        C323   1.551       .  S
C301        C305   1.538       .  S
C301        C307   1.543       .  S
C301        C306   1.550       .  S
C301        C324   1.548       .  S
C302        C310   1.388       .  A
C302       C3281   1.387   1_455  A
C303        C314   1.388       .  A
C303       C3282   1.390   1_455  A
C304        C318   1.391       .  A
C304       C3283   1.390   1_455  A
C305       C1294   1.387       .  A
C305        C308   1.375       .  A
C306       C1295   1.388       .  A
C306        C312   1.392       .  A
C307       C1296   1.387       .  A
C307        C315   1.378       .  A
C308        H321   1.076       .  S
C308        N309   1.356       .  A
N309       C1302   1.361       .  A
N309        C389   1.445       .  S
C310        H311   1.082       .  S
C310       N3285   1.362   1_455  A
C312        H322   1.080       .  S
C312        N313   1.369       .  A
N313       C1306   1.360       .  A
C314        H320   1.082       .  S
C314       N3289   1.362       .  A
C315        H317   1.079       .  S
C315        N316   1.357       .  A
N316       C1310   1.364       .  A
N316        C373   1.452       .  S
C318        H319   1.081       .  S
C318       N3292   1.366   1_455  A
C323        C325   1.543       .  S
C323        C327   1.536       .  S
C323        C326   1.549       .  S
C324        C328   1.551       .  S
C324        C330   1.545       .  S
C324        C329   1.546       .  S
C325        C333   1.381       .  A
C325        C328   1.391       .  A
C326        C337   1.389       .  A
C326        C329   1.390       .  A
C327        C341   1.374       .  A
C327        C330   1.388       .  A
C328        C331   1.390       .  A
C329        C335   1.384       .  A
C330        C338   1.387       .  A
C331        H344   1.081       .  S
C331        N332   1.364       .  A
N332        C333   1.355       .  A
N332        C453   1.450       .  S
C333        H334   1.081       .  S
C335        H345   1.082       .  S
C335        N336   1.358       .  A
N336        C337   1.368       .  A
N336        N855   1.423       .  S
C337        H343   1.082       .  S
C338        H340   1.085       .  S
C338        N339   1.361       .  A
N339        C341   1.354       .  A
N339        C437   1.444       .  S
C341        H342   1.082       .  S
C346        C348   1.551       .  S
C346        C350   1.549       .  S
C346        C349   1.545       .  S
C347        C351   1.539       .  S
C347        C353   1.538       .  S
C347        C352   1.550       .  S
C348        C356   1.390       .  A
C348        C351   1.389       .  A
C349        C360   1.384       .  A
C349        C352   1.389       .  A
C350        C364   1.391       .  A
C350        C353   1.388       .  A
C351        C354   1.380       .  A
C352        C358   1.390       .  A
C353        C361   1.375       .  A
C354        H367   1.079       .  S
C354        N355   1.354       .  A
N355        C356   1.365       .  A
N355        C469   1.450       .  S
C356        H357   1.082       .  S
C358        H368   1.081       .  S
C358        N359   1.368       .  A
N359        C360   1.359       .  A
N359        N832   1.423   1_545  S
C360        H366   1.080       .  S
C361        H363   1.087       .  S
C361        N362   1.355       .  A
N362        C364   1.364       .  A
N362        C482   1.450       .  S
C364        H365   1.079       .  S
C369       C3346   1.403   1_455  A
C369        C374   1.406       .  A
C369        H376   1.085       .  S
C370       C1361   1.403       .  A
C370        C371   1.425       .  A
C371        C378   1.507       .  S
C371        C372   1.413       .  A
C372        C373   1.404       .  A
C372        H377   1.084       .  S
C373       C1366   1.415       .  A
C374        C375   1.496       .  S
C374       C3349   1.414   1_455  A
C375        H379   1.108       .  S
C375        H380   1.105       .  S
C375        H381   1.110       .  S
C378        H382   1.106       .  S
C378        H383   1.110       .  S
C378        H384   1.111       .  S
C385        C386   1.411       .  A
C385        C390   1.408       .  A
C385        H392   1.084       .  S
C386       C1379   1.416       .  A
C387        C394   1.505       .  S
C387       C3362   1.416   1_455  A
C387        C388   1.410       .  A
C388       C3365   1.405   1_455  A
C388        H393   1.084       .  S
C389       C1380   1.406       .  A
C389        C390   1.411       .  A
C390        C391   1.507       .  S
C391        H395   1.110       .  S
C391        H396   1.110       .  S
C391        H397   1.108       .  S
C394        H398   1.109       .  S
C394        H399   1.110   1_455  S
C394        H400   1.108       .  S
C401       C3378   1.412       .  A
C401        C406   1.409       .  A
C401        H408   1.085       .  S
C402       C1393   1.409       .  A
C402        C403   1.416       .  A
C403        C410   1.505       .  S
C403        C404   1.410       .  A
C404        C405   1.406       .  A
C404        H409   1.084       .  S
C405       C1398   1.410       .  A
C406        C407   1.507       .  S
C406       C3381   1.411       .  A
C407        H411   1.111   1_545  S
C407        H412   1.108       .  S
C407        H413   1.110   1_545  S
C410        H414   1.109       .  S
C410        H415   1.107       .  S
C410        H416   1.111       .  S
C417        C418   1.400       .  A
C417        C422   1.405       .  A
C417        H424   1.083       .  S
C418       C1411   1.425       .  A
C419        C426   1.507   1_545  S
C419       C3394   1.424       .  A
C419        C420   1.411       .  A
C420       C3397   1.403       .  A
C420        H425   1.083       .  S
C421       C1412   1.405       .  A
C421        C422   1.415       .  A
C422        C423   1.494       .  S
C423        H427   1.107       .  S
C423        H428   1.110       .  S
C423        H429   1.105       .  S
C426        H430   1.110   1_565  S
C426        H431   1.107       .  S
C426        H432   1.111       .  S
C433        C434   1.401       .  A
C433        C438   1.404       .  A
C433        H440   1.084       .  S
C434        C435   1.424       .  A
C435        C442   1.506       .  S
C435        C436   1.406       .  A
C436        C437   1.399       .  A
C436        H441   1.083       .  S
C437        C438   1.414       .  A
C438        C439   1.494       .  S
C439        H443   1.109       .  S
C439        H444   1.111       .  S
C439        H445   1.104       .  S
C442        H446   1.109       .  S
C442        H447   1.105       .  S
C442        H448   1.111       .  S
C449        C450   1.403       .  A
C449        C454   1.407       .  A
C449        H456   1.085       .  S
C450        C451   1.425       .  A
C451        C458   1.506       .  S
C451        C452   1.410       .  A
C452        C453   1.401       .  A
C452        H457   1.084       .  S
C453        C454   1.415       .  A
C454        C455   1.495       .  S
C455        H459   1.103       .  S
C455        H460   1.110       .  S
C455        H461   1.110       .  S
C458        H462   1.106       .  S
C458        H463   1.109       .  S
C458        H464   1.111       .  S
C465        C466   1.403       .  A
C465        C470   1.407       .  A
C465        H472   1.084       .  S
C466        C467   1.424       .  A
C467        C474   1.504       .  S
C467        C468   1.410       .  A
C468        C469   1.402       .  A
C468        H473   1.084       .  S
C469        C470   1.415       .  A
C470        C471   1.496       .  S
C471        H475   1.110       .  S
C471        H476   1.111       .  S
C471        H477   1.104       .  S
C474        H478   1.108       .  S
C474        H479   1.106       .  S
C474        H480   1.111       .  S
C481        C482   1.403       .  A
C481        C486   1.411       .  A
C481        H488   1.083       .  S
C482        C483   1.416       .  A
C483        C490   1.497       .  S
C483        C484   1.407       .  A
C484        C485   1.404       .  A
C484        H489   1.084       .  S
C485        C486   1.423       .  A
C486        C487   1.504       .  S
C487        H491   1.111       .  S
C487        H492   1.106       .  S
C487        H493   1.107       .  S
C490        H494   1.106       .  S
C490        H495   1.109       .  S
C490        H496   1.110       .  S
O497        C507   1.279       .  A
O497       Cu753   2.007       .  S
O498        C508   1.278       .  A
O498       Cu505   2.013   1_554  S
O499        C509   1.277       .  A
O499       Cu753   2.011       .  S
O500        C510   1.279       .  A
O500       Cu505   2.007   1_554  S
O501        C510   1.279       .  A
O501       Cu754   2.023       .  S
O502        C509   1.280       .  A
O502       Cu506   2.011       .  S
O503        C508   1.279       .  A
O503       Cu754   2.007       .  S
O504        C507   1.279       .  A
O504       Cu506   2.020       .  S
Cu505       O745   2.008       .  S
Cu505       O747   2.012       .  S
Cu505      Cu754   2.362   1_556  S
Cu506       O749   2.025       .  S
Cu506       O751   2.009       .  S
Cu506      Cu753   2.361       .  S
C507        C714   1.495       .  S
C508        C698   1.492       .  S
C509        C682   1.493       .  S
C510        C733   1.498       .  S
O511       C3497   1.279       .  A
O511       Cu767   2.014       .  S
O512       C3498   1.277   1_455  A
O513       C3499   1.280   1_455  A
O514       C3500   1.278       .  A
O514       Cu519   2.014       .  S
O515        C524   1.280       .  A
O515       Cu520   2.008   1_554  S
O516        C523   1.280       .  A
O517        C522   1.280       .  A
O518        C521   1.278       .  A
O518       Cu768   2.011       .  S
Cu519       O759   2.012   1_554  S
Cu519     Cu3496   2.363   1_454  S
Cu520       O766   2.006       .  S
Cu520     Cu1511   2.363       .  S
C521       O1503   1.280       .  A
C521        C650   1.489       .  S
C522       O1504   1.279       .  A
C522        C634   1.494       .  S
C523       O1505   1.280       .  A
C523        C618   1.500       .  S
C524       O1506   1.278       .  A
C524        C666   1.490       .  S
C525        C527   1.546       .  S
C525        C529   1.545       .  S
C525        C528   1.547       .  S
C525        C595   1.548       .  S
C526        C530   1.540       .  S
C526        C532   1.544       .  S
C526        C531   1.550       .  S
C526        C594   1.550       .  S
C527        C535   1.387       .  A
C527       C1522   1.390       .  A
C528        C539   1.385       .  A
C528       C1523   1.390       .  A
C529        C543   1.387       .  A
C529       C1524   1.388       .  A
C530       C3503   1.388   1_455  A
C530        C533   1.377       .  A
C531       C3504   1.389   1_455  A
C531        C537   1.392       .  A
C532       C3505   1.388   1_455  A
C532        C540   1.379       .  A
C533        H546   1.078       .  S
C533       N3510   1.356       .  A
N534       C1525   1.356       .  A
N534        C535   1.364       .  A
N534        C669   1.447       .  S
C535        H536   1.079       .  S
C537        H547   1.080       .  S
C537       N3514   1.369       .  A
N538       C1529   1.369       .  A
N538        C539   1.358       .  A
N538        N561   1.425       .  S
C539        H545   1.081       .  S
C540        H542   1.073       .  S
C540       N3517   1.359       .  A
N541       C1532   1.355       .  A
N541        C543   1.360       .  A
N541        C653   1.442       .  S
C543        H544   1.081       .  S
C548        C550   1.546       .  S
C548        C552   1.549       .  S
C548        C551   1.551       .  S
C548        C571   1.548       .  S
C549        C553   1.539       .  S
C549        C555   1.543       .  S
C549        C554   1.551       .  S
C549        C572   1.551       .  S
C550        C558   1.387       .  A
C550       C3529   1.387   1_455  A
C551        C562   1.388       .  A
C551       C3530   1.389   1_455  A
C552        C566   1.389       .  A
C552       C3531   1.389   1_455  A
C553       C1542   1.387       .  A
C553        C556   1.376       .  A
C554       C1543   1.389       .  A
C554        C560   1.392       .  A
C555       C1544   1.387       .  A
C555        C563   1.379       .  A
C556        H569   1.079       .  S
C556        N557   1.356       .  A
N557       C1550   1.361       .  A
N557        C637   1.447       .  S
C558        H559   1.082       .  S
C558       N3533   1.362   1_455  A
C560        H570   1.081       .  S
C560        N561   1.370       .  A
N561       C1554   1.359       .  A
C562        H568   1.081       .  S
C562       N3537   1.360       .  A
C563        H565   1.078       .  S
C563        N564   1.357       .  A
N564       C1558   1.365       .  A
N564        C621   1.453       .  S
C566        H567   1.082       .  S
C566       N3540   1.364   1_455  A
C571        C573   1.538       .  S
C571        C575   1.537       .  S
C571        C574   1.549       .  S
C572        C576   1.552       .  S
C572        C578   1.548       .  S
C572        C577   1.549       .  S
C573        C581   1.378       .  A
C573        C576   1.391       .  A
C574        C585   1.390       .  A
C574        C577   1.390       .  A
C575        C589   1.375       .  A
C575        C578   1.387       .  A
C576        C579   1.390       .  A
C577        C583   1.386       .  A
C578        C586   1.389       .  A
C579        H592   1.082       .  S
C579        N580   1.365       .  A
N580        C581   1.353       .  A
N580        C701   1.447       .  S
C581        H582   1.082       .  S
C583        H593   1.081       .  S
C583        N584   1.359       .  A
N584        C585   1.369       .  A
C585        H591   1.083       .  S
C586        H588   1.081       .  S
C586        N587   1.364       .  A
N587        C589   1.354       .  A
N587        C685   1.447       .  S
C589        H590   1.081       .  S
C594        C596   1.547       .  S
C594        C598   1.549       .  S
C594        C597   1.547       .  S
C595        C599   1.540       .  S
C595        C601   1.539       .  S
C595        C600   1.550       .  S
C596        C604   1.387       .  A
C596        C599   1.388       .  A
C597        C608   1.384       .  A
C597        C600   1.389       .  A
C598        C612   1.389       .  A
C598        C601   1.389       .  A
C599        C602   1.380       .  A
C600        C606   1.391       .  A
C601        C609   1.377       .  A
C602        H615   1.081       .  S
C602        N603   1.354       .  A
N603        C604   1.363       .  A
N603        C717   1.448       .  S
C604        H605   1.084       .  S
C606        H616   1.081       .  S
C606        N607   1.369       .  A
N607        C608   1.358       .  A
C608        H614   1.081       .  S
C609        H611   1.079       .  S
C609        N610   1.356       .  A
N610        C612   1.365       .  A
N610        C730   1.450       .  S
C612        H613   1.080       .  S
C617       C3594   1.402   1_455  A
C617        C622   1.405       .  A
C617        H624   1.084       .  S
C618       C1609   1.402       .  A
C618        C619   1.425       .  A
C619        C626   1.507       .  S
C619        C620   1.415       .  A
C620        C621   1.405       .  A
C620        H625   1.084       .  S
C621       C1614   1.415       .  A
C622        C623   1.495       .  S
C622       C3597   1.413   1_455  A
C623        H627   1.108       .  S
C623        H628   1.104       .  S
C623        H629   1.111       .  S
C626        H630   1.106   1_565  S
C626        H631   1.110       .  S
C626        H632   1.111   1_565  S
C633        C634   1.410       .  A
C633        C638   1.409       .  A
C633        H640   1.084       .  S
C634       C1627   1.413       .  A
C635        C642   1.504   1_655  S
C635       C3610   1.415       .  A
C635        C636   1.409   1_655  A
C636       C3613   1.405   1_455  A
C636        H641   1.084       .  S
C637       C1628   1.407       .  A
C637        C638   1.412       .  A
C638        C639   1.506       .  S
C639        H643   1.111   1_565  S
C639        H644   1.109   1_565  S
C639        H645   1.109       .  S
C642        H646   1.109       .  S
C642        H647   1.110   1_455  S
C642        H648   1.107       .  S
C649       C3626   1.411       .  A
C649        C654   1.409       .  A
C649        H656   1.085       .  S
C650       C1641   1.410       .  A
C650        C651   1.415       .  A
C651        C658   1.504       .  S
C651        C652   1.409       .  A
C652        C653   1.406       .  A
C652        H657   1.084       .  S
C653       C1646   1.410       .  A
C654        C655   1.506       .  S
C654       C3629   1.411       .  A
C655        H659   1.111       .  S
C655        H660   1.108       .  S
C655        H661   1.110       .  S
C658        H662   1.108       .  S
C658        H663   1.106       .  S
C658        H664   1.111       .  S
C665        C666   1.400       .  A
C665        C670   1.404       .  A
C665        H672   1.085       .  S
C666       C1659   1.424       .  A
C667        C674   1.507       .  S
C667       C3642   1.425       .  A
C667        C668   1.410       .  A
C668       C3645   1.401       .  A
C668        H673   1.083       .  S
C669       C1660   1.402       .  A
C669        C670   1.415       .  A
C670        C671   1.495       .  S
C671        H675   1.109       .  S
C671        H676   1.111       .  S
C671        H677   1.104       .  S
C674        H678   1.110       .  S
C674        H679   1.105       .  S
C674        H680   1.111       .  S
C681        C682   1.400       .  A
C681        C686   1.404       .  A
C681        H688   1.084       .  S
C682        C683   1.425       .  A
C683        C690   1.505       .  S
C683        C684   1.410       .  A
C684        C685   1.401       .  A
C684        H689   1.084       .  S
C685        C686   1.414       .  A
C686        C687   1.493       .  S
C687        H691   1.109       .  S
C687        H692   1.111       .  S
C687        H693   1.104       .  S
C690        H694   1.109       .  S
C690        H695   1.105       .  S
C690        H696   1.111       .  S
C697        C698   1.401       .  A
C697        C702   1.404       .  A
C697        H704   1.084       .  S
C698        C699   1.424       .  A
C699        C706   1.506       .  S
C699        C700   1.409       .  A
C700        C701   1.401       .  A
C700        H705   1.083       .  S
C701        C702   1.414       .  A
C702        C703   1.495       .  S
C703        H707   1.103       .  S
C703        H708   1.111       .  S
C703        H709   1.109       .  S
C706        H710   1.106       .  S
C706        H711   1.109       .  S
C706        H712   1.111       .  S
C713        C714   1.401       .  A
C713        C718   1.404       .  A
C713        H720   1.085       .  S
C714        C715   1.424       .  A
C715        C722   1.504       .  S
C715        C716   1.410       .  A
C716        C717   1.401       .  A
C716        H721   1.085       .  S
C717        C718   1.414       .  A
C718        C719   1.496       .  S
C719        H723   1.110       .  S
C719        H724   1.110       .  S
C719        H725   1.104       .  S
C722        H726   1.107       .  S
C722        H727   1.106       .  S
C722        H728   1.112       .  S
C729        C730   1.403       .  A
C729        C734   1.412       .  A
C729        H736   1.082       .  S
C730        C731   1.415       .  A
C731        C738   1.495       .  S
C731        C732   1.406       .  A
C732        C733   1.402       .  A
C732        H737   1.083       .  S
C733        C734   1.424       .  A
C734        C735   1.504       .  S
C735        H739   1.111       .  S
C735        H740   1.107       .  S
C735        H741   1.108       .  S
C738        H742   1.106       .  S
C738        H743   1.110       .  S
C738        H744   1.108       .  S
O745        C755   1.279       .  A
O746        C756   1.279       .  A
O746       Cu753   2.021       .  S
O747        C757   1.278       .  A
O748        C758   1.278       .  A
O748       Cu753   1.999       .  S
O749        C758   1.280       .  A
O750        C757   1.279       .  A
O750       Cu754   2.005   1_556  S
O751        C756   1.279       .  A
O752        C755   1.280       .  A
O752       Cu754   2.026   1_556  S
C755        C962   1.498       .  S
C756        C946   1.496       .  S
C757        C930   1.491       .  S
C758        C981   1.496       .  S
O759       C3745   1.279       .  A
O760       C3746   1.277   1_455  A
O761       C3747   1.279   1_455  A
O762       C3748   1.280       .  A
O762       Cu767   2.025       .  S
O763        C772   1.280       .  A
O763       Cu768   2.015       .  S
O764        C771   1.280       .  A
O765        C770   1.281       .  A
O766        C769   1.277       .  A
Cu767     Cu3744   2.362   1_455  S
Cu768     Cu1759   2.363       .  S
C769       O1751   1.280       .  A
C769        C898   1.487       .  S
C770       O1752   1.278       .  A
C770        C882   1.493       .  S
C771       O1753   1.279       .  A
C771        C866   1.498       .  S
C772       O1754   1.279       .  A
C772        C914   1.497       .  S
C773        C775   1.550       .  S
C773        C777   1.547       .  S
C773        C776   1.548       .  S
C773        C843   1.550       .  S
C774        C778   1.542       .  S
C774        C780   1.541       .  S
C774        C779   1.549       .  S
C774        C842   1.549       .  S
C775        C783   1.389       .  A
C775       C1770   1.390       .  A
C776        C787   1.386       .  A
C776       C1771   1.390       .  A
C777        C791   1.388       .  A
C777       C1772   1.388       .  A
C778       C3751   1.389   1_455  A
C778        C781   1.378       .  A
C779       C3752   1.388   1_455  A
C779        C785   1.391       .  A
C780       C3753   1.386   1_455  A
C780        C788   1.377       .  A
C781        H794   1.078       .  S
C781       N3758   1.357       .  A
N782       C1773   1.356       .  A
N782        C783   1.365       .  A
N782        C917   1.451       .  S
C783        H784   1.080       .  S
C785        H795   1.081       .  S
C785       N3762   1.368       .  A
N786       C1777   1.369       .  A
N786        C787   1.360       .  A
N786        N809   1.424       .  S
C787        H793   1.080       .  S
C788        H790   1.079       .  S
C788       N3765   1.357       .  A
N789       C1780   1.353       .  A
N789        C791   1.361       .  A
N789        C901   1.441       .  S
C791        H792   1.083       .  S
C796        C798   1.547       .  S
C796        C800   1.553       .  S
C796        C799   1.550       .  S
C796        C819   1.550       .  S
C797        C801   1.540       .  S
C797        C803   1.542       .  S
C797        C802   1.549       .  S
C797        C820   1.550       .  S
C798        C806   1.388       .  A
C798       C3777   1.387   1_455  A
C799        C810   1.387       .  A
C799       C3778   1.390   1_455  A
C800        C814   1.391       .  A
C800       C3779   1.389   1_455  A
C801       C1790   1.388       .  A
C801        C804   1.376       .  A
C802       C1791   1.389       .  A
C802        C808   1.391       .  A
C803       C1792   1.388       .  A
C803        C811   1.378       .  A
C804        H817   1.079       .  S
C804        N805   1.357       .  A
N805       C1798   1.360       .  A
N805        C885   1.445       .  S
C806        H807   1.082       .  S
C806       N3781   1.362   1_455  A
C808        H818   1.080       .  S
C808        N809   1.369       .  A
N809       C1802   1.359       .  A
C810        H816   1.081       .  S
C810       N3785   1.361       .  A
C811        H813   1.077       .  S
C811        N812   1.357       .  A
N812       C1806   1.364       .  A
N812        C869   1.451       .  S
C814        H815   1.082       .  S
C814       N3788   1.366   1_455  A
C819        C821   1.542       .  S
C819        C823   1.537       .  S
C819        C822   1.548       .  S
C820        C824   1.551       .  S
C820        C826   1.548       .  S
C820        C825   1.546       .  S
C821        C829   1.381       .  A
C821        C824   1.391       .  A
C822        C833   1.389       .  A
C822        C825   1.390       .  A
C823        C837   1.375       .  A
C823        C826   1.388       .  A
C824        C827   1.390       .  A
C825        C831   1.385       .  A
C826        C834   1.389       .  A
C827        H840   1.079       .  S
C827        N828   1.364       .  A
N828        C829   1.355       .  A
N828        C949   1.450       .  S
C829        H830   1.082       .  S
C831        H841   1.081       .  S
C831        N832   1.359       .  A
N832        C833   1.368       .  A
C833        H839   1.081       .  S
C834        H836   1.084       .  S
C834        N835   1.363       .  A
N835        C837   1.354       .  A
N835        C933   1.446       .  S
C837        H838   1.080       .  S
C842        C844   1.551       .  S
C842        C846   1.549       .  S
C842        C845   1.546       .  S
C843        C847   1.541       .  S
C843        C849   1.539       .  S
C843        C848   1.548       .  S
C844        C852   1.391       .  A
C844        C847   1.389       .  A
C845        C856   1.385       .  A
C845        C848   1.390       .  A
C846        C860   1.390       .  A
C846        C849   1.388       .  A
C847        C850   1.380       .  A
C848        C854   1.389       .  A
C849        C857   1.375       .  A
C850        H863   1.082       .  S
C850        N851   1.354       .  A
N851        C852   1.365       .  A
N851        C965   1.450       .  S
C852        H853   1.081       .  S
C854        H864   1.081       .  S
C854        N855   1.368       .  A
N855        C856   1.359       .  A
C856        H862   1.080       .  S
C857        H859   1.085       .  S
C857        N858   1.355       .  A
N858        C860   1.364       .  A
N858        C978   1.450       .  S
C860        H861   1.081       .  S
C865       C3842   1.403   1_455  A
C865        C870   1.406       .  A
C865        H872   1.085       .  S
C866       C1857   1.403       .  A
C866        C867   1.424       .  A
C867        C874   1.507       .  S
C867        C868   1.412       .  A
C868        C869   1.403       .  A
C868        H873   1.084       .  S
C869       C1862   1.414       .  A
C870        C871   1.496       .  S
C870       C3845   1.413   1_455  A
C871        H875   1.108       .  S
C871        H876   1.104       .  S
C871        H877   1.111       .  S
C874        H878   1.107   1_565  S
C874        H879   1.111       .  S
C874        H880   1.111   1_565  S
C881        C882   1.410       .  A
C881        C886   1.408       .  A
C881        H888   1.084       .  S
C882       C1875   1.415       .  A
C883        C890   1.505   1_655  S
C883       C3858   1.416       .  A
C883        C884   1.410   1_655  A
C884       C3861   1.405   1_455  A
C884        H889   1.084       .  S
C885       C1876   1.406       .  A
C885        C886   1.411       .  A
C886        C887   1.506       .  S
C887        H891   1.111   1_565  S
C887        H892   1.110   1_565  S
C887        H893   1.108       .  S
C890        H894   1.108       .  S
C890        H895   1.110   1_455  S
C890        H896   1.108       .  S
C897       C3874   1.411       .  A
C897        C902   1.407       .  A
C897        H904   1.084       .  S
C898       C1889   1.408       .  A
C898        C899   1.415       .  A
C899        C906   1.505       .  S
C899        C900   1.410       .  A
C900        C901   1.406       .  A
C900        H905   1.085       .  S
C901       C1894   1.411       .  A
C902        C903   1.506       .  S
C902       C3877   1.409       .  A
C903        H907   1.111       .  S
C903        H908   1.108       .  S
C903        H909   1.110       .  S
C906        H910   1.110       .  S
C906        H911   1.109       .  S
C906        H912   1.108       .  S
C913        C914   1.401       .  A
C913        C918   1.406       .  A
C913        H920   1.083       .  S
C914       C1907   1.425       .  A
C915        C922   1.507       .  S
C915       C3890   1.425       .  A
C915        C916   1.412       .  A
C916       C3893   1.404       .  A
C916        H921   1.085       .  S
C917       C1908   1.404       .  A
C917        C918   1.414       .  A
C918        C919   1.495       .  S
C919        H923   1.108       .  S
C919        H924   1.111       .  S
C919        H925   1.105       .  S
C922        H926   1.110       .  S
C922        H927   1.107       .  S
C922        H928   1.111       .  S
C929        C930   1.401       .  A
C929        C934   1.404       .  A
C929        H936   1.085       .  S
C930        C931   1.424       .  A
C931        C938   1.505       .  S
C931        C932   1.408       .  A
C932        C933   1.401       .  A
C932        H937   1.084       .  S
C933        C934   1.414       .  A
C934        C935   1.493       .  S
C935        H939   1.109       .  S
C935        H940   1.111       .  S
C935        H941   1.104       .  S
C938        H942   1.109       .  S
C938        H943   1.106       .  S
C938        H944   1.111       .  S
C945        C946   1.403       .  A
C945        C950   1.407       .  A
C945        H952   1.084       .  S
C946        C947   1.424       .  A
C947        C954   1.506       .  S
C947        C948   1.410       .  A
C948        C949   1.401       .  A
C948        H953   1.084       .  S
C949        C950   1.415       .  A
C950        C951   1.495       .  S
C951        H955   1.104       .  S
C951        H956   1.110       .  S
C951        H957   1.109       .  S
C954        H958   1.106       .  S
C954        H959   1.109       .  S
C954        H960   1.111       .  S
C961        C962   1.403       .  A
C961        C966   1.407       .  A
C961        H968   1.084       .  S
C962        C963   1.424       .  A
C963        C970   1.505       .  S
C963        C964   1.410       .  A
C964        C965   1.402       .  A
C964        H969   1.084       .  S
C965        C966   1.415       .  A
C966        C967   1.496       .  S
C967        H971   1.110       .  S
C967        H972   1.110       .  S
C967        H973   1.104       .  S
C970        H974   1.108       .  S
C970        H975   1.105       .  S
C970        H976   1.111       .  S
C977        C978   1.403       .  A
C977        C982   1.410       .  A
C977        H984   1.084       .  S
C978        C979   1.416       .  A
C979        C986   1.496       .  S
C979        C980   1.406       .  A
C980        C981   1.403       .  A
C980        H985   1.085       .  S
C981        C982   1.423       .  A
C982        C983   1.504       .  S
C983        H987   1.111       .  S
C983        H988   1.106       .  S
C983        H989   1.108       .  S
C986        H990   1.106       .  S
C986        H991   1.109       .  S
C986        H992   1.110       .  S
O993       C1003   1.279       .  A
O993      Cu1249   2.009       .  S
O994       C1004   1.279       .  A
O994      Cu1001   2.020       .  S
O995       C1005   1.279       .  A
O995      Cu1249   2.021       .  S
O996       C1006   1.280       .  A
O996      Cu1001   2.012       .  S
O997       C1006   1.279       .  A
O997      Cu1250   2.023       .  S
O998       C1005   1.279       .  A
O998      Cu1002   2.006       .  S
O999       C1004   1.279       .  A
O999      Cu1250   2.005       .  S
O1000      C1003   1.279       .  A
O1000     Cu1002   2.023       .  S
Cu1001     O1241   2.012   1_554  S
Cu1001     O1243   2.020   1_554  S
Cu1001    Cu1250   2.361       .  S
Cu1002     O1245   2.017       .  S
Cu1002     O1247   2.010       .  S
Cu1002    Cu1249   2.361       .  S
C1003      C1210   1.498       .  S
C1004      C1194   1.494       .  S
C1005      C1178   1.496       .  S
C1006      C1229   1.499       .  S
O1007     Cu1263   2.014   1_545  S
O1008     Cu1511   2.016   1_554  S
O1009     Cu1759   2.015       .  S
O1010     Cu1015   2.017   1_545  S
O1011      C1020   1.280       .  A
O1011     Cu1016   2.015   1_554  S
O1012      C1019   1.279       .  A
O1012     Cu1760   2.026       .  S
O1013      C1018   1.281       .  A
O1013     Cu1512   2.025   1_554  S
O1014      C1017   1.279       .  A
O1014     Cu1264   2.014       .  S
Cu1015     O1255   2.019   1_564  S
Cu1015     O1504   2.016       .  S
Cu1015     O1753   2.010   1_554  S
Cu1016     O1756   2.027   1_545  S
Cu1016     O1509   2.022   1_546  S
Cu1016     O1262   2.014       .  S
Cu1016    Cu2007   2.362   1_546  S
C1017      O1999   1.279       .  A
C1017      C1146   1.494       .  S
C1018      O2000   1.277       .  A
C1018      C1130   1.495       .  S
C1019      O2001   1.280       .  A
C1019      C1114   1.496       .  S
C1020      O2002   1.280       .  A
C1020      C1162   1.499       .  S
C1021      C1023   1.548       .  S
C1021      C1025   1.543       .  S
C1021      C1024   1.550       .  S
C1021      C1091   1.547       .  S
C1022      C1026   1.541       .  S
C1022      C1028   1.536       .  S
C1022      C1027   1.551       .  S
C1022      C1090   1.551       .  S
C1023      C1031   1.389       .  A
C1023      C2018   1.388       .  A
C1024      C1035   1.387       .  A
C1024      C2019   1.389       .  A
C1025      C1039   1.385       .  A
C1025      C2020   1.387       .  A
C1026      C1029   1.376       .  A
C1027      C1033   1.392       .  A
C1028      C1036   1.374       .  A
C1029      H1042   1.077       .  S
N1030      C2021   1.357       .  A
N1030      C1031   1.365       .  A
N1030      C1165   1.452       .  S
C1031      H1032   1.081       .  S
C1033      H1043   1.081       .  S
N1034      C2025   1.369       .  A
N1034      C1035   1.360       .  A
N1034      N1057   1.426       .  S
C1035      H1041   1.079       .  S
C1036      H1038   1.080       .  S
N1037      C2028   1.357       .  A
N1037      C1039   1.361       .  A
N1037      C1149   1.445       .  S
C1039      H1040   1.082       .  S
C1044      C1046   1.548       .  S
C1044      C1048   1.549       .  S
C1044      C1047   1.548       .  S
C1044      C1067   1.547       .  S
C1045      C1049   1.541       .  S
C1045      C1051   1.537       .  S
C1045      C1050   1.549       .  S
C1045      C1068   1.550       .  S
C1046      C1054   1.389       .  A
C1047      C1058   1.387       .  A
C1048      C1062   1.391       .  A
C1049      C2038   1.387       .  A
C1049      C1052   1.377       .  A
C1050      C2039   1.389       .  A
C1050      C1056   1.392       .  A
C1051      C2040   1.388       .  A
C1051      C1059   1.375       .  A
C1052      H1065   1.075       .  S
C1052      N1053   1.357       .  A
N1053      C2046   1.361       .  A
N1053      C1133   1.446       .  S
C1054      H1055   1.083       .  S
C1056      H1066   1.080       .  S
C1056      N1057   1.369       .  A
N1057      C2050   1.360       .  A
C1058      H1064   1.081       .  S
C1059      H1061   1.081       .  S
C1059      N1060   1.353       .  A
N1060      C2054   1.366       .  A
N1060      C1117   1.449       .  S
C1062      H1063   1.081       .  S
C1067      C1069   1.539       .  S
C1067      C1071   1.537       .  S
C1067      C1070   1.549       .  S
C1068      C1072   1.550       .  S
C1068      C1074   1.552       .  S
C1068      C1073   1.548       .  S
C1069      C1077   1.378       .  A
C1069      C1072   1.389       .  A
C1070      C1081   1.391       .  A
C1070      C1073   1.389       .  A
C1071      C1085   1.376       .  A
C1071      C1074   1.389       .  A
C1072      C1075   1.391       .  A
C1073      C1079   1.386       .  A
C1074      C1082   1.392       .  A
C1075      H1088   1.081       .  S
C1075      N1076   1.364       .  A
N1076      C1077   1.352       .  A
N1076      C1197   1.447       .  S
C1077      H1078   1.081       .  S
C1079      H1089   1.080       .  S
C1079      N1080   1.358       .  A
N1080      C1081   1.369       .  A
N1080      N1599   1.425       .  S
C1081      H1087   1.081       .  S
C1082      H1084   1.081       .  S
C1082      N1083   1.365       .  A
N1083      C1085   1.354       .  A
N1083      C1181   1.448       .  S
C1085      H1086   1.081       .  S
C1090      C1092   1.553       .  S
C1090      C1094   1.547       .  S
C1090      C1093   1.550       .  S
C1091      C1095   1.543       .  S
C1091      C1097   1.539       .  S
C1091      C1096   1.550       .  S
C1092      C1100   1.391       .  A
C1092      C1095   1.391       .  A
C1093      C1104   1.387       .  A
C1093      C1096   1.390       .  A
C1094      C1108   1.389       .  A
C1094      C1097   1.386       .  A
C1095      C1098   1.382       .  A
C1096      C1102   1.391       .  A
C1097      C1105   1.379       .  A
C1098      H1111   1.080       .  S
C1098      N1099   1.355       .  A
N1099      C1100   1.365       .  A
N1099      C1213   1.451       .  S
C1100      H1101   1.081       .  S
C1102      H1112   1.082       .  S
C1102      N1103   1.369       .  A
N1103      C1104   1.359       .  A
N1103      N1576   1.425   1_545  S
C1104      H1110   1.081       .  S
C1105      H1107   1.080       .  S
C1105      N1106   1.355       .  A
N1106      C1108   1.364       .  A
N1106      C1226   1.450       .  S
C1108      H1109   1.081       .  S
C1113      C1118   1.407       .  A
C1113      H1120   1.085       .  S
C1114      C2105   1.401       .  A
C1114      C1115   1.425       .  A
C1115      C1122   1.507       .  S
C1115      C1116   1.412       .  A
C1116      C1117   1.403       .  A
C1116      H1121   1.084       .  S
C1117      C2110   1.413       .  A
C1118      C1119   1.497       .  S
C1119      H1123   1.109       .  S
C1119      H1124   1.104       .  S
C1119      H1125   1.111       .  S
C1122      H1126   1.105       .  S
C1122      H1127   1.110       .  S
C1122      H1128   1.111       .  S
C1129      C1130   1.411       .  A
C1129      C1134   1.410       .  A
C1129      H1136   1.084       .  S
C1130      C2123   1.415       .  A
C1131      C1138   1.503       .  S
C1131      C1132   1.412       .  A
C1132      H1137   1.084       .  S
C1133      C2124   1.405       .  A
C1133      C1134   1.413       .  A
C1134      C1135   1.507       .  S
C1135      H1139   1.111       .  S
C1135      H1140   1.109       .  S
C1135      H1141   1.108       .  S
C1138      H1142   1.110       .  S
C1138      H1143   1.110       .  S
C1138      H1144   1.106       .  S
C1145      C1150   1.405       .  A
C1145      H1152   1.084       .  S
C1146      C2137   1.411       .  A
C1146      C1147   1.415       .  A
C1147      C1154   1.503       .  S
C1147      C1148   1.409       .  A
C1148      C1149   1.405       .  A
C1148      H1153   1.086       .  S
C1149      C2142   1.412       .  A
C1150      C1151   1.507       .  S
C1151      H1155   1.111   1_545  S
C1151      H1156   1.108       .  S
C1151      H1157   1.109   1_545  S
C1154      H1158   1.110       .  S
C1154      H1159   1.109       .  S
C1154      H1160   1.107       .  S
C1161      C1162   1.403       .  A
C1161      C1166   1.407       .  A
C1161      H1168   1.083       .  S
C1162      C2155   1.426       .  A
C1163      C1170   1.508       .  S
C1163      C1164   1.410       .  A
C1164      H1169   1.083       .  S
C1165      C2156   1.403       .  A
C1165      C1166   1.415       .  A
C1166      C1167   1.496       .  S
C1167      H1171   1.109       .  S
C1167      H1172   1.111       .  S
C1167      H1173   1.104       .  S
C1170      H1174   1.110       .  S
C1170      H1175   1.106   1_545  S
C1170      H1176   1.111   1_545  S
C1177      C1178   1.402       .  A
C1177      C1182   1.406       .  A
C1177      H1184   1.083       .  S
C1178      C1179   1.424       .  A
C1179      C1186   1.504       .  S
C1179      C1180   1.411       .  A
C1180      C1181   1.402       .  A
C1180      H1185   1.082       .  S
C1181      C1182   1.414       .  A
C1182      C1183   1.494       .  S
C1183      H1187   1.108       .  S
C1183      H1188   1.110       .  S
C1183      H1189   1.104       .  S
C1186      H1190   1.106       .  S
C1186      H1191   1.105       .  S
C1186      H1192   1.111       .  S
C1193      C1194   1.403       .  A
C1193      C1198   1.406       .  A
C1193      H1200   1.085       .  S
C1194      C1195   1.424       .  A
C1195      C1202   1.504       .  S
C1195      C1196   1.408       .  A
C1196      C1197   1.400       .  A
C1196      H1201   1.084       .  S
C1197      C1198   1.414       .  A
C1198      C1199   1.494       .  S
C1199      H1203   1.104       .  S
C1199      H1204   1.111       .  S
C1199      H1205   1.109       .  S
C1202      H1206   1.105       .  S
C1202      H1207   1.109       .  S
C1202      H1208   1.111       .  S
C1209      C1210   1.403       .  A
C1209      C1214   1.407       .  A
C1209      H1216   1.084       .  S
C1210      C1211   1.425       .  A
C1211      C1218   1.506       .  S
C1211      C1212   1.411       .  A
C1212      C1213   1.401       .  A
C1212      H1217   1.083       .  S
C1213      C1214   1.414       .  A
C1214      C1215   1.494       .  S
C1215      H1219   1.109       .  S
C1215      H1220   1.110       .  S
C1215      H1221   1.103       .  S
C1218      H1222   1.109       .  S
C1218      H1223   1.106       .  S
C1218      H1224   1.111       .  S
C1225      C1226   1.403       .  A
C1225      C1230   1.413       .  A
C1225      H1232   1.083       .  S
C1226      C1227   1.414       .  A
C1227      C1234   1.494       .  S
C1227      C1228   1.405       .  A
C1228      C1229   1.401       .  A
C1228      H1233   1.084       .  S
C1229      C1230   1.426       .  A
C1230      C1231   1.505       .  S
C1231      H1235   1.111       .  S
C1231      H1236   1.106       .  S
C1231      H1237   1.107       .  S
C1234      H1238   1.104       .  S
C1234      H1239   1.111       .  S
C1234      H1240   1.109       .  S
O1241      C1251   1.279       .  A
O1242      C1252   1.279       .  A
O1242     Cu1249   2.024       .  S
O1243      C1253   1.279       .  A
O1244      C1254   1.279       .  A
O1244     Cu1249   2.005       .  S
O1245      C1254   1.278       .  A
O1246      C1253   1.279       .  A
O1246     Cu1250   2.002   1_556  S
O1247      C1252   1.279       .  A
O1248      C1251   1.280       .  A
O1248     Cu1250   2.028   1_556  S
C1251      C1458   1.501       .  S
C1252      C1442   1.496       .  S
C1253      C1426   1.494       .  S
C1254      C1477   1.494       .  S
O1256     Cu1759   2.008       .  S
O1257     Cu1511   2.011       .  S
O1258     Cu1263   2.023   1_545  S
O1259      C1268   1.280       .  A
O1259     Cu1264   2.013       .  S
O1260      C1267   1.280       .  A
O1260     Cu1512   2.029       .  S
O1261      C1266   1.281       .  A
O1261     Cu1760   2.025       .  S
O1262      C1265   1.278       .  A
Cu1263     O1752   2.010       .  S
Cu1263     O1505   2.017       .  S
Cu1264     O1508   2.027   1_545  S
Cu1264     O1757   2.026   1_545  S
Cu1264    Cu2255   2.362   1_545  S
C1265      O2247   1.280       .  A
C1265      C1394   1.494       .  S
C1266      O2248   1.277       .  A
C1266      C1378   1.493       .  S
C1267      O2249   1.279       .  A
C1267      C1362   1.496       .  S
C1268      O2250   1.279       .  A
C1268      C1410   1.497       .  S
C1269      C1271   1.549       .  S
C1269      C1273   1.540       .  S
C1269      C1272   1.550       .  S
C1269      C1339   1.546       .  S
C1270      C1274   1.542       .  S
C1270      C1276   1.534       .  S
C1270      C1275   1.549       .  S
C1270      C1338   1.551       .  S
C1271      C1279   1.388       .  A
C1271      C2266   1.389       .  A
C1272      C1283   1.387       .  A
C1272      C2267   1.389       .  A
C1273      C1287   1.384       .  A
C1273      C2268   1.387       .  A
C1274      C1277   1.377       .  A
C1275      C1281   1.390       .  A
C1276      C1284   1.373       .  A
C1277      H1290   1.084       .  S
N1278      C2269   1.357       .  A
N1278      C1279   1.365       .  A
N1278      C1413   1.451       .  S
C1279      H1280   1.083       .  S
C1281      H1291   1.081       .  S
N1282      C2273   1.368       .  A
N1282      C1283   1.361       .  A
N1282      N1305   1.426       .  S
C1283      H1289   1.080       .  S
C1284      H1286   1.071       .  S
N1285      C2276   1.357       .  A
N1285      C1287   1.359       .  A
N1285      C1397   1.444       .  S
C1287      H1288   1.083       .  S
C1292      C1294   1.546       .  S
C1292      C1296   1.547       .  S
C1292      C1295   1.548       .  S
C1292      C1315   1.543       .  S
C1293      C1297   1.535       .  S
C1293      C1299   1.537       .  S
C1293      C1298   1.547       .  S
C1293      C1316   1.549       .  S
C1294      C1302   1.388       .  A
C1295      C1306   1.387       .  A
C1296      C1310   1.388       .  A
C1297      C2286   1.387       .  A
C1297      C1300   1.373       .  A
C1298      C2287   1.390       .  A
C1298      C1304   1.389       .  A
C1299      C2288   1.390       .  A
C1299      C1307   1.374       .  A
C1300      H1313   1.080       .  S
C1300      N1301   1.354       .  A
N1301      C2294   1.362       .  A
N1301      C1381   1.443       .  S
C1302      H1303   1.083       .  S
C1304      H1314   1.081       .  S
C1304      N1305   1.368       .  A
N1305      C2298   1.362       .  A
C1306      H1312   1.080       .  S
C1307      H1309   1.084       .  S
C1307      N1308   1.354       .  A
N1308      C2302   1.366       .  A
N1308      C1365   1.450       .  S
C1310      H1311   1.082       .  S
C1315      C1317   1.536       .  S
C1315      C1319   1.536       .  S
C1315      C1318   1.548       .  S
C1316      C1320   1.553       .  S
C1316      C1322   1.549       .  S
C1316      C1321   1.551       .  S
C1317      C1325   1.377       .  A
C1317      C1320   1.389       .  A
C1318      C1329   1.391       .  A
C1318      C1321   1.388       .  A
C1319      C1333   1.375       .  A
C1319      C1322   1.387       .  A
C1320      C1323   1.392       .  A
C1321      C1327   1.388       .  A
C1322      C1330   1.389       .  A
C1323      H1336   1.080       .  S
C1323      N1324   1.365       .  A
N1324      C1325   1.352       .  A
N1324      C1445   1.447       .  S
C1325      H1326   1.082       .  S
C1327      H1337   1.080       .  S
C1327      N1328   1.361       .  A
N1328      C1329   1.368       .  A
N1328      N1847   1.426       .  S
C1329      H1335   1.082       .  S
C1330      H1332   1.081       .  S
C1330      N1331   1.365       .  A
N1331      C1333   1.354       .  A
N1331      C1429   1.447       .  S
C1333      H1334   1.082       .  S
C1338      C1340   1.557       .  S
C1338      C1342   1.548       .  S
C1338      C1341   1.551       .  S
C1339      C1343   1.543       .  S
C1339      C1345   1.534       .  S
C1339      C1344   1.549       .  S
C1340      C1348   1.394       .  A
C1340      C1343   1.391       .  A
C1341      C1352   1.388       .  A
C1341      C1344   1.389       .  A
C1342      C1356   1.389       .  A
C1342      C1345   1.386       .  A
C1343      C1346   1.382       .  A
C1344      C1350   1.391       .  A
C1345      C1353   1.376       .  A
C1346      H1359   1.081       .  S
C1346      N1347   1.355       .  A
N1347      C1348   1.366       .  A
N1347      C1461   1.453       .  S
C1348      H1349   1.082       .  S
C1350      H1360   1.080       .  S
C1350      N1351   1.368       .  A
N1351      C1352   1.361       .  A
N1351      N1824   1.426   1_545  S
C1352      H1358   1.080       .  S
C1353      H1355   1.079       .  S
C1353      N1354   1.354       .  A
N1354      C1356   1.364       .  A
N1354      C1474   1.447       .  S
C1356      H1357   1.082       .  S
C1361      C1366   1.407       .  A
C1361      H1368   1.084       .  S
C1362      C2353   1.403       .  A
C1362      C1363   1.424       .  A
C1363      C1370   1.507       .  S
C1363      C1364   1.412       .  A
C1364      C1365   1.404       .  A
C1364      H1369   1.084       .  S
C1365      C2358   1.414       .  A
C1366      C1367   1.496       .  S
C1367      H1371   1.108       .  S
C1367      H1372   1.104       .  S
C1367      H1373   1.110       .  S
C1370      H1374   1.106       .  S
C1370      H1375   1.110       .  S
C1370      H1376   1.111       .  S
C1377      C1378   1.410       .  A
C1377      C1382   1.408       .  A
C1377      H1384   1.085       .  S
C1378      C2371   1.416       .  A
C1379      C1386   1.505       .  S
C1379      C1380   1.411       .  A
C1380      H1385   1.084       .  S
C1381      C2372   1.405       .  A
C1381      C1382   1.412       .  A
C1382      C1383   1.507       .  S
C1383      H1387   1.111       .  S
C1383      H1388   1.109       .  S
C1383      H1389   1.108       .  S
C1386      H1390   1.108       .  S
C1386      H1391   1.111       .  S
C1386      H1392   1.109       .  S
C1393      C1398   1.405       .  A
C1393      H1400   1.084       .  S
C1394      C2385   1.412       .  A
C1394      C1395   1.415       .  A
C1395      C1402   1.504       .  S
C1395      C1396   1.409       .  A
C1396      C1397   1.405       .  A
C1396      H1401   1.084       .  S
C1397      C2390   1.410       .  A
C1398      C1399   1.507       .  S
C1399      H1403   1.111   1_545  S
C1399      H1404   1.108       .  S
C1399      H1405   1.110   1_545  S
C1402      H1406   1.110       .  S
C1402      H1407   1.109       .  S
C1402      H1408   1.108       .  S
C1409      C1410   1.402       .  A
C1409      C1414   1.406       .  A
C1409      H1416   1.085       .  S
C1410      C2403   1.425       .  A
C1411      C1418   1.507       .  S
C1411      C1412   1.413       .  A
C1412      H1417   1.082       .  S
C1413      C2404   1.403       .  A
C1413      C1414   1.414       .  A
C1414      C1415   1.496       .  S
C1415      H1419   1.108       .  S
C1415      H1420   1.110       .  S
C1415      H1421   1.104       .  S
C1418      H1422   1.110       .  S
C1418      H1423   1.106   1_545  S
C1418      H1424   1.111   1_545  S
C1425      C1426   1.401       .  A
C1425      C1430   1.404       .  A
C1425      H1432   1.083       .  S
C1426      C1427   1.424       .  A
C1427      C1434   1.504       .  S
C1427      C1428   1.411       .  A
C1428      C1429   1.403       .  A
C1428      H1433   1.083       .  S
C1429      C1430   1.414       .  A
C1430      C1431   1.494       .  S
C1431      H1435   1.108       .  S
C1431      H1436   1.110       .  S
C1431      H1437   1.105       .  S
C1434      H1438   1.108       .  S
C1434      H1439   1.106       .  S
C1434      H1440   1.111       .  S
C1441      C1442   1.403       .  A
C1441      C1446   1.407       .  A
C1441      H1448   1.083       .  S
C1442      C1443   1.424       .  A
C1443      C1450   1.504       .  S
C1443      C1444   1.409       .  A
C1444      C1445   1.400       .  A
C1444      H1449   1.083       .  S
C1445      C1446   1.413       .  A
C1446      C1447   1.495       .  S
C1447      H1451   1.103       .  S
C1447      H1452   1.111       .  S
C1447      H1453   1.109       .  S
C1450      H1454   1.104       .  S
C1450      H1455   1.107       .  S
C1450      H1456   1.111       .  S
C1457      C1458   1.404       .  A
C1457      C1462   1.409       .  A
C1457      H1464   1.083       .  S
C1458      C1459   1.425       .  A
C1459      C1466   1.506       .  S
C1459      C1460   1.412       .  A
C1460      C1461   1.402       .  A
C1460      H1465   1.083       .  S
C1461      C1462   1.414       .  A
C1462      C1463   1.495       .  S
C1463      H1467   1.109       .  S
C1463      H1468   1.111       .  S
C1463      H1469   1.102       .  S
C1466      H1470   1.109       .  S
C1466      H1471   1.106       .  S
C1466      H1472   1.111       .  S
C1473      C1474   1.402       .  A
C1473      C1478   1.411       .  A
C1473      H1480   1.084       .  S
C1474      C1475   1.413       .  A
C1475      C1482   1.493       .  S
C1475      C1476   1.403       .  A
C1476      C1477   1.401       .  A
C1476      H1481   1.084       .  S
C1477      C1478   1.425       .  A
C1478      C1479   1.506       .  S
C1479      H1483   1.111       .  S
C1479      H1484   1.106       .  S
C1479      H1485   1.109       .  S
C1482      H1486   1.105       .  S
C1482      H1487   1.111       .  S
C1482      H1488   1.108       .  S
O1489      C1499   1.279       .  A
O1489     Cu1745   2.009       .  S
O1490      C1500   1.280       .  A
O1490     Cu1497   2.023       .  S
O1491      C1501   1.279       .  A
O1491     Cu1745   2.022       .  S
O1492      C1502   1.280       .  A
O1492     Cu1497   2.010       .  S
O1493      C1502   1.279       .  A
O1493     Cu1746   2.025       .  S
O1494      C1501   1.279       .  A
O1494     Cu1498   2.005       .  S
O1495      C1500   1.278       .  A
O1495     Cu1746   2.008       .  S
O1496      C1499   1.280       .  A
O1496     Cu1498   2.024       .  S
Cu1497     O1737   2.014   1_554  S
Cu1497     O1739   2.020   1_554  S
Cu1497    Cu1746   2.361       .  S
Cu1498     O1741   2.018       .  S
Cu1498     O1743   2.009       .  S
Cu1498    Cu1745   2.361       .  S
C1499      C1706   1.497       .  S
C1500      C1690   1.495       .  S
C1501      C1674   1.496       .  S
C1502      C1725   1.499       .  S
O1503     Cu1759   2.014       .  S
O1506     Cu1511   2.013   1_554  S
O1507      C1516   1.280       .  A
O1507     Cu1512   2.014   1_554  S
O1508      C1515   1.280       .  A
O1509      C1514   1.280       .  A
O1510      C1513   1.279       .  A
O1510     Cu1760   2.015       .  S
Cu1511     O1751   2.015       .  S
Cu1512     O1758   2.013       .  S
Cu1512    Cu2503   2.363   1_556  S
C1513      O2495   1.280       .  A
C1513      C1642   1.496       .  S
C1514      O2496   1.278       .  A
C1514      C1626   1.493       .  S
C1515      O2497   1.280       .  A
C1515      C1610   1.495       .  S
C1516      O2498   1.279       .  A
C1516      C1658   1.496       .  S
C1517      C1519   1.547       .  S
C1517      C1521   1.543       .  S
C1517      C1520   1.550       .  S
C1517      C1587   1.548       .  S
C1518      C1522   1.540       .  S
C1518      C1524   1.537       .  S
C1518      C1523   1.550       .  S
C1518      C1586   1.551       .  S
C1519      C1527   1.388       .  A
C1519      C2514   1.388       .  A
C1520      C1531   1.387       .  A
C1520      C2515   1.389       .  A
C1521      C1535   1.385       .  A
C1521      C2516   1.388       .  A
C1522      C1525   1.376       .  A
C1523      C1529   1.391       .  A
C1524      C1532   1.374       .  A
C1525      H1538   1.076       .  S
N1526      C2517   1.356       .  A
N1526      C1527   1.364       .  A
N1526      C1661   1.450       .  S
C1527      H1528   1.081       .  S
C1529      H1539   1.082       .  S
N1530      C2521   1.369       .  A
N1530      C1531   1.360       .  A
N1530      N1553   1.426       .  S
C1531      H1537   1.080       .  S
C1532      H1534   1.079       .  S
N1533      C2524   1.359       .  A
N1533      C1535   1.361       .  A
N1533      C1645   1.447       .  S
C1535      H1536   1.083       .  S
C1540      C1542   1.547       .  S
C1540      C1544   1.548       .  S
C1540      C1543   1.549       .  S
C1540      C1563   1.546       .  S
C1541      C1545   1.539       .  S
C1541      C1547   1.537       .  S
C1541      C1546   1.550       .  S
C1541      C1564   1.549       .  S
C1542      C1550   1.389       .  A
C1543      C1554   1.387       .  A
C1544      C1558   1.389       .  A
C1545      C2534   1.387       .  A
C1545      C1548   1.375       .  A
C1546      C2535   1.389       .  A
C1546      C1552   1.392       .  A
C1547      C2536   1.388       .  A
C1547      C1555   1.375       .  A
C1548      H1561   1.080       .  S
C1548      N1549   1.355       .  A
N1549      C2542   1.362       .  A
N1549      C1629   1.445       .  S
C1550      H1551   1.082       .  S
C1552      H1562   1.081       .  S
C1552      N1553   1.369       .  A
N1553      C2546   1.360       .  A
C1554      H1560   1.081       .  S
C1555      H1557   1.076       .  S
C1555      N1556   1.354       .  A
N1556      C2550   1.365       .  A
N1556      C1613   1.448       .  S
C1558      H1559   1.082       .  S
C1563      C1565   1.538       .  S
C1563      C1567   1.537       .  S
C1563      C1566   1.549       .  S
C1564      C1568   1.552       .  S
C1564      C1570   1.552       .  S
C1564      C1569   1.549       .  S
C1565      C1573   1.378       .  A
C1565      C1568   1.389       .  A
C1566      C1577   1.391       .  A
C1566      C1569   1.388       .  A
C1567      C1581   1.376       .  A
C1567      C1570   1.388       .  A
C1568      C1571   1.393       .  A
C1569      C1575   1.386       .  A
C1570      C1578   1.392       .  A
C1571      H1584   1.080       .  S
C1571      N1572   1.365       .  A
N1572      C1573   1.351       .  A
N1572      C1693   1.447       .  S
C1573      H1574   1.082       .  S
C1575      H1585   1.081       .  S
C1575      N1576   1.359       .  A
N1576      C1577   1.369       .  A
C1577      H1583   1.082       .  S
C1578      H1580   1.080       .  S
C1578      N1579   1.366       .  A
N1579      C1581   1.354       .  A
N1579      C1677   1.449       .  S
C1581      H1582   1.078       .  S
C1586      C1588   1.552       .  S
C1586      C1590   1.547       .  S
C1586      C1589   1.548       .  S
C1587      C1591   1.541       .  S
C1587      C1593   1.540       .  S
C1587      C1592   1.551       .  S
C1588      C1596   1.391       .  A
C1588      C1591   1.391       .  A
C1589      C1600   1.386       .  A
C1589      C1592   1.390       .  A
C1590      C1604   1.389       .  A
C1590      C1593   1.386       .  A
C1591      C1594   1.381       .  A
C1592      C1598   1.392       .  A
C1593      C1601   1.379       .  A
C1594      H1607   1.079       .  S
C1594      N1595   1.355       .  A
N1595      C1596   1.365       .  A
N1595      C1709   1.449       .  S
C1596      H1597   1.081       .  S
C1598      H1608   1.081       .  S
C1598      N1599   1.369       .  A
N1599      C1600   1.358       .  A
C1600      H1606   1.081       .  S
C1601      H1603   1.082       .  S
C1601      N1602   1.355       .  A
N1602      C1604   1.364       .  A
N1602      C1722   1.450       .  S
C1604      H1605   1.081       .  S
C1609      C1614   1.407       .  A
C1609      H1616   1.084       .  S
C1610      C2601   1.402       .  A
C1610      C1611   1.425       .  A
C1611      C1618   1.507       .  S
C1611      C1612   1.412       .  A
C1612      C1613   1.403       .  A
C1612      H1617   1.084       .  S
C1613      C2606   1.413       .  A
C1614      C1615   1.496       .  S
C1615      H1619   1.108       .  S
C1615      H1620   1.104       .  S
C1615      H1621   1.111       .  S
C1618      H1622   1.105   1_565  S
C1618      H1623   1.110       .  S
C1618      H1624   1.112   1_565  S
C1625      C1626   1.411       .  A
C1625      C1630   1.409       .  A
C1625      H1632   1.083       .  S
C1626      C2619   1.415       .  A
C1627      C1634   1.503       .  S
C1627      C1628   1.412       .  A
C1628      H1633   1.084       .  S
C1629      C2620   1.405       .  A
C1629      C1630   1.413       .  A
C1630      C1631   1.507       .  S
C1631      H1635   1.111   1_565  S
C1631      H1636   1.109   1_565  S
C1631      H1637   1.109       .  S
C1634      H1638   1.109       .  S
C1634      H1639   1.110       .  S
C1634      H1640   1.106       .  S
C1641      C1646   1.406       .  A
C1641      H1648   1.084       .  S
C1642      C2633   1.412       .  A
C1642      C1643   1.415       .  A
C1643      C1650   1.504       .  S
C1643      C1644   1.410       .  A
C1644      C1645   1.406       .  A
C1644      H1649   1.084       .  S
C1645      C2638   1.412       .  A
C1646      C1647   1.507       .  S
C1647      H1651   1.111       .  S
C1647      H1652   1.108       .  S
C1647      H1653   1.109       .  S
C1650      H1654   1.110       .  S
C1650      H1655   1.109       .  S
C1650      H1656   1.108       .  S
C1657      C1658   1.402       .  A
C1657      C1662   1.406       .  A
C1657      H1664   1.083       .  S
C1658      C2651   1.425       .  A
C1659      C1666   1.508       .  S
C1659      C1660   1.409       .  A
C1660      H1665   1.084       .  S
C1661      C2652   1.402       .  A
C1661      C1662   1.415       .  A
C1662      C1663   1.495       .  S
C1663      H1667   1.108       .  S
C1663      H1668   1.110       .  S
C1663      H1669   1.104       .  S
C1666      H1670   1.110       .  S
C1666      H1671   1.106       .  S
C1666      H1672   1.111       .  S
C1673      C1674   1.402       .  A
C1673      C1678   1.406       .  A
C1673      H1680   1.083       .  S
C1674      C1675   1.424       .  A
C1675      C1682   1.503       .  S
C1675      C1676   1.411       .  A
C1676      C1677   1.403       .  A
C1676      H1681   1.082       .  S
C1677      C1678   1.414       .  A
C1678      C1679   1.494       .  S
C1679      H1683   1.108       .  S
C1679      H1684   1.110       .  S
C1679      H1685   1.105       .  S
C1682      H1686   1.107       .  S
C1682      H1687   1.106       .  S
C1682      H1688   1.111       .  S
C1689      C1690   1.404       .  A
C1689      C1694   1.407       .  A
C1689      H1696   1.085       .  S
C1690      C1691   1.424       .  A
C1691      C1698   1.504       .  S
C1691      C1692   1.408       .  A
C1692      C1693   1.399       .  A
C1692      H1697   1.084       .  S
C1693      C1694   1.413       .  A
C1694      C1695   1.495       .  S
C1695      H1699   1.102       .  S
C1695      H1700   1.111       .  S
C1695      H1701   1.110       .  S
C1698      H1702   1.104       .  S
C1698      H1703   1.108       .  S
C1698      H1704   1.111       .  S
C1705      C1706   1.404       .  A
C1705      C1710   1.407       .  A
C1705      H1712   1.085       .  S
C1706      C1707   1.425       .  A
C1707      C1714   1.505       .  S
C1707      C1708   1.410       .  A
C1708      C1709   1.400       .  A
C1708      H1713   1.084       .  S
C1709      C1710   1.414       .  A
C1710      C1711   1.495       .  S
C1711      H1715   1.109       .  S
C1711      H1716   1.111       .  S
C1711      H1717   1.103       .  S
C1714      H1718   1.108       .  S
C1714      H1719   1.105       .  S
C1714      H1720   1.111       .  S
C1721      C1722   1.403       .  A
C1721      C1726   1.414       .  A
C1721      H1728   1.083       .  S
C1722      C1723   1.414       .  A
C1723      C1730   1.494       .  S
C1723      C1724   1.404       .  A
C1724      C1725   1.401       .  A
C1724      H1729   1.084       .  S
C1725      C1726   1.426       .  A
C1726      C1727   1.505       .  S
C1727      H1731   1.111       .  S
C1727      H1732   1.106       .  S
C1727      H1733   1.107       .  S
C1730      H1734   1.104       .  S
C1730      H1735   1.110       .  S
C1730      H1736   1.108       .  S
O1737      C1747   1.279       .  A
O1738      C1748   1.279       .  A
O1738     Cu1745   2.022       .  S
O1739      C1749   1.279       .  A
O1740      C1750   1.280       .  A
O1740     Cu1745   2.008       .  S
O1741      C1750   1.278       .  A
O1742      C1749   1.279       .  A
O1742     Cu1746   2.001   1_556  S
O1743      C1748   1.279       .  A
O1744      C1747   1.281       .  A
O1744     Cu1746   2.031   1_556  S
C1747      C1954   1.502       .  S
C1748      C1938   1.494       .  S
C1749      C1922   1.493       .  S
C1750      C1973   1.495       .  S
O1754     Cu1759   2.024       .  S
O1755      C1764   1.280       .  A
O1755     Cu1760   2.012       .  S
O1756      C1763   1.280       .  A
O1757      C1762   1.282       .  A
O1758      C1761   1.279       .  A
Cu1760    Cu2751   2.362       .  S
C1761      O2743   1.279       .  A
C1761      C1890   1.492       .  S
C1762      O2744   1.277       .  A
C1762      C1874   1.493       .  S
C1763      O2745   1.279       .  A
C1763      C1858   1.496       .  S
C1764      O2746   1.280       .  A
C1764      C1906   1.498       .  S
C1765      C1767   1.549       .  S
C1765      C1769   1.539       .  S
C1765      C1768   1.549       .  S
C1765      C1835   1.545       .  S
C1766      C1770   1.542       .  S
C1766      C1772   1.532       .  S
C1766      C1771   1.549       .  S
C1766      C1834   1.552       .  S
C1767      C1775   1.388       .  A
C1767      C2762   1.389       .  A
C1768      C1779   1.387       .  A
C1768      C2763   1.388       .  A
C1769      C1783   1.383       .  A
C1769      C2764   1.386       .  A
C1770      C1773   1.377       .  A
C1771      C1777   1.390       .  A
C1772      C1780   1.370       .  A
C1773      H1786   1.079       .  S
N1774      C2765   1.356       .  A
N1774      C1775   1.365       .  A
N1774      C1909   1.451       .  S
C1775      H1776   1.081       .  S
C1777      H1787   1.080       .  S
N1778      C2769   1.369       .  A
N1778      C1779   1.360       .  A
N1778      N1801   1.426       .  S
C1779      H1785   1.080       .  S
C1780      H1782   1.078       .  S
N1781      C2772   1.357       .  A
N1781      C1783   1.359       .  A
N1781      C1893   1.442       .  S
C1783      H1784   1.081       .  S
C1788      C1790   1.544       .  S
C1788      C1792   1.545       .  S
C1788      C1791   1.547       .  S
C1788      C1811   1.544       .  S
C1789      C1793   1.535       .  S
C1789      C1795   1.536       .  S
C1789      C1794   1.549       .  S
C1789      C1812   1.549       .  S
C1790      C1798   1.387       .  A
C1791      C1802   1.386       .  A
C1792      C1806   1.387       .  A
C1793      C2782   1.387       .  A
C1793      C1796   1.373       .  A
C1794      C2783   1.390       .  A
C1794      C1800   1.390       .  A
C1795      C2784   1.389       .  A
C1795      C1803   1.374       .  A
C1796      H1809   1.078       .  S
C1796      N1797   1.354       .  A
N1797      C2790   1.362       .  A
N1797      C1877   1.445       .  S
C1798      H1799   1.083       .  S
C1800      H1810   1.081       .  S
C1800      N1801   1.368       .  A
N1801      C2794   1.361       .  A
C1802      H1808   1.079       .  S
C1803      H1805   1.080       .  S
C1803      N1804   1.354       .  A
N1804      C2798   1.366       .  A
N1804      C1861   1.449       .  S
C1806      H1807   1.082       .  S
C1811      C1813   1.536       .  S
C1811      C1815   1.536       .  S
C1811      C1814   1.548       .  S
C1812      C1816   1.551       .  S
C1812      C1818   1.549       .  S
C1812      C1817   1.551       .  S
C1813      C1821   1.377       .  A
C1813      C1816   1.389       .  A
C1814      C1825   1.391       .  A
C1814      C1817   1.388       .  A
C1815      C1829   1.375       .  A
C1815      C1818   1.388       .  A
C1816      C1819   1.391       .  A
C1817      C1823   1.388       .  A
C1818      C1826   1.389       .  A
C1819      H1832   1.080       .  S
C1819      N1820   1.364       .  A
N1820      C1821   1.352       .  A
N1820      C1941   1.445       .  S
C1821      H1822   1.082       .  S
C1823      H1833   1.080       .  S
C1823      N1824   1.361       .  A
N1824      C1825   1.368       .  A
C1825      H1831   1.081       .  S
C1826      H1828   1.082       .  S
C1826      N1827   1.364       .  A
N1827      C1829   1.354       .  A
N1827      C1925   1.447       .  S
C1829      H1830   1.080       .  S
C1834      C1836   1.560       .  S
C1834      C1838   1.548       .  S
C1834      C1837   1.552       .  S
C1835      C1839   1.543       .  S
C1835      C1841   1.534       .  S
C1835      C1840   1.548       .  S
C1836      C1844   1.396       .  A
C1836      C1839   1.391       .  A
C1837      C1848   1.389       .  A
C1837      C1840   1.389       .  A
C1838      C1852   1.390       .  A
C1838      C1841   1.385       .  A
C1839      C1842   1.383       .  A
C1840      C1846   1.391       .  A
C1841      C1849   1.377       .  A
C1842      H1855   1.083       .  S
C1842      N1843   1.355       .  A
N1843      C1844   1.367       .  A
N1843      C1957   1.454       .  S
C1844      H1845   1.082       .  S
C1846      H1856   1.080       .  S
C1846      N1847   1.368       .  A
N1847      C1848   1.361       .  A
C1848      H1854   1.080       .  S
C1849      H1851   1.079       .  S
C1849      N1850   1.354       .  A
N1850      C1852   1.364       .  A
N1850      C1970   1.448       .  S
C1852      H1853   1.082       .  S
C1857      C1862   1.406       .  A
C1857      H1864   1.084       .  S
C1858      C2849   1.403       .  A
C1858      C1859   1.424       .  A
C1859      C1866   1.507       .  S
C1859      C1860   1.411       .  A
C1860      C1861   1.403       .  A
C1860      H1865   1.084       .  S
C1861      C2854   1.413       .  A
C1862      C1863   1.496       .  S
C1863      H1867   1.108       .  S
C1863      H1868   1.104       .  S
C1863      H1869   1.110       .  S
C1866      H1870   1.105   1_565  S
C1866      H1871   1.110       .  S
C1866      H1872   1.111   1_565  S
C1873      C1874   1.410       .  A
C1873      C1878   1.408       .  A
C1873      H1880   1.085       .  S
C1874      C2867   1.417       .  A
C1875      C1882   1.504       .  S
C1875      C1876   1.411       .  A
C1876      H1881   1.085       .  S
C1877      C2868   1.405       .  A
C1877      C1878   1.413       .  A
C1878      C1879   1.507       .  S
C1879      H1883   1.111   1_565  S
C1879      H1884   1.109   1_565  S
C1879      H1885   1.108       .  S
C1882      H1886   1.109       .  S
C1882      H1887   1.110       .  S
C1882      H1888   1.107       .  S
C1889      C1894   1.404       .  A
C1889      H1896   1.085       .  S
C1890      C2881   1.411       .  A
C1890      C1891   1.414       .  A
C1891      C1898   1.503       .  S
C1891      C1892   1.408       .  A
C1892      C1893   1.405       .  A
C1892      H1897   1.084       .  S
C1893      C2886   1.410       .  A
C1894      C1895   1.507       .  S
C1895      H1899   1.111       .  S
C1895      H1900   1.108       .  S
C1895      H1901   1.109       .  S
C1898      H1902   1.110       .  S
C1898      H1903   1.109       .  S
C1898      H1904   1.107       .  S
C1905      C1906   1.403       .  A
C1905      C1910   1.406       .  A
C1905      H1912   1.085       .  S
C1906      C2899   1.425       .  A
C1907      C1914   1.507       .  S
C1907      C1908   1.413       .  A
C1908      H1913   1.082       .  S
C1909      C2900   1.404       .  A
C1909      C1910   1.414       .  A
C1910      C1911   1.496       .  S
C1911      H1915   1.108       .  S
C1911      H1916   1.110       .  S
C1911      H1917   1.104       .  S
C1914      H1918   1.110       .  S
C1914      H1919   1.107       .  S
C1914      H1920   1.111       .  S
C1921      C1922   1.401       .  A
C1921      C1926   1.403       .  A
C1921      H1928   1.084       .  S
C1922      C1923   1.425       .  A
C1923      C1930   1.505       .  S
C1923      C1924   1.411       .  A
C1924      C1925   1.402       .  A
C1924      H1929   1.084       .  S
C1925      C1926   1.413       .  A
C1926      C1927   1.494       .  S
C1927      H1931   1.108       .  S
C1927      H1932   1.110       .  S
C1927      H1933   1.105       .  S
C1930      H1934   1.107       .  S
C1930      H1935   1.106       .  S
C1930      H1936   1.111       .  S
C1937      C1938   1.402       .  A
C1937      C1942   1.406       .  A
C1937      H1944   1.084       .  S
C1938      C1939   1.424       .  A
C1939      C1946   1.504       .  S
C1939      C1940   1.408       .  A
C1940      C1941   1.399       .  A
C1940      H1945   1.084       .  S
C1941      C1942   1.412       .  A
C1942      C1943   1.494       .  S
C1943      H1947   1.103       .  S
C1943      H1948   1.111       .  S
C1943      H1949   1.109       .  S
C1946      H1950   1.104       .  S
C1946      H1951   1.107       .  S
C1946      H1952   1.111       .  S
C1953      C1954   1.405       .  A
C1953      C1958   1.410       .  A
C1953      H1960   1.084       .  S
C1954      C1955   1.426       .  A
C1955      C1962   1.505       .  S
C1955      C1956   1.413       .  A
C1956      C1957   1.402       .  A
C1956      H1961   1.083       .  S
C1957      C1958   1.414       .  A
C1958      C1959   1.495       .  S
C1959      H1963   1.110       .  S
C1959      H1964   1.111       .  S
C1959      H1965   1.102       .  S
C1962      H1966   1.109       .  S
C1962      H1967   1.105       .  S
C1962      H1968   1.111       .  S
C1969      C1970   1.402       .  A
C1969      C1974   1.411       .  A
C1969      H1976   1.085       .  S
C1970      C1971   1.413       .  A
C1971      C1978   1.493       .  S
C1971      C1972   1.404       .  A
C1972      C1973   1.401       .  A
C1972      H1977   1.085       .  S
C1973      C1974   1.425       .  A
C1974      C1975   1.506       .  S
C1975      H1979   1.111       .  S
C1975      H1980   1.106       .  S
C1975      H1981   1.108       .  S
C1978      H1982   1.104       .  S
C1978      H1983   1.111       .  S
C1978      H1984   1.108       .  S
O1985      C1995   1.279       .  A
O1985     Cu2241   2.010       .  S
O1986      C1996   1.277       .  A
O1986     Cu1993   2.010   1_554  S
O1987      C1997   1.277       .  A
O1987     Cu2241   2.009       .  S
O1988      C1998   1.279       .  A
O1988     Cu1993   2.006   1_554  S
O1989      C1998   1.279       .  A
O1989     Cu2242   2.020       .  S
O1990      C1997   1.280       .  A
O1990     Cu1994   2.013       .  S
O1991      C1996   1.279       .  A
O1991     Cu2242   2.005       .  S
O1992      C1995   1.279       .  A
O1992     Cu1994   2.024       .  S
Cu1993     O2233   2.008       .  S
Cu1993     O2235   2.009       .  S
Cu1993    Cu2242   2.362   1_556  S
Cu1994     O2237   2.028       .  S
Cu1994     O2239   2.010       .  S
Cu1994    Cu2241   2.361       .  S
C1995      C2202   1.496       .  S
C1996      C2186   1.491       .  S
C1997      C2170   1.492       .  S
C1998      C2221   1.497       .  S
O1999     Cu2255   2.014   1_545  S
O2000     Cu2503   2.007       .  S
O2001     Cu2751   2.010       .  S
O2002     Cu2007   2.025   1_545  S
O2003      C2012   1.280       .  A
O2003     Cu2008   2.011   1_554  S
O2004      C2011   1.281       .  A
O2004     Cu2752   2.035       .  S
O2005      C2010   1.281       .  A
O2005     Cu2504   2.024   1_554  S
O2006      C2009   1.277       .  A
O2006     Cu2256   2.010       .  S
Cu2007     O2247   2.021   1_564  S
Cu2007     O2496   2.009       .  S
Cu2007     O2745   2.009   1_554  S
Cu2008     O2748   2.028   1_545  S
Cu2008     O2501   2.020   1_546  S
Cu2008     O2254   2.008       .  S
Cu2008    Cu2999   2.364   1_546  S
C2009      O2991   1.280       .  A
C2009      C2138   1.487       .  S
C2010      O2992   1.279       .  A
C2010      C2122   1.497       .  S
C2011      O2993   1.280       .  A
C2011      C2106   1.501       .  S
C2012      O2994   1.278       .  A
C2012      C2154   1.492       .  S
C2013      C2015   1.546       .  S
C2013      C2017   1.543       .  S
C2013      C2016   1.547       .  S
C2013      C2083   1.547       .  S
C2014      C2018   1.542       .  S
C2014      C2020   1.541       .  S
C2014      C2019   1.550       .  S
C2014      C2082   1.549       .  S
C2015      C2023   1.387       .  A
C2015      C3010   1.390       .  A
C2016      C2027   1.385       .  A
C2016      C3011   1.390       .  A
C2017      C2031   1.386       .  A
C2017      C3012   1.387       .  A
C2018      C2021   1.379       .  A
C2019      C2025   1.392       .  A
C2020      C2028   1.378       .  A
C2021      H2034   1.075       .  S
N2022      C3013   1.356       .  A
N2022      C2023   1.363       .  A
N2022      C2157   1.447       .  S
C2023      H2024   1.082       .  S
C2025      H2035   1.081       .  S
N2026      C3017   1.370       .  A
N2026      C2027   1.359       .  A
N2026      N2049   1.425       .  S
C2027      H2033   1.081       .  S
C2028      H2030   1.077       .  S
N2029      C3020   1.354       .  A
N2029      C2031   1.359       .  A
N2029      C2141   1.441       .  S
C2031      H2032   1.080       .  S
C2036      C2038   1.544       .  S
C2036      C2040   1.551       .  S
C2036      C2039   1.552       .  S
C2036      C2059   1.548       .  S
C2037      C2041   1.540       .  S
C2037      C2043   1.542       .  S
C2037      C2042   1.550       .  S
C2037      C2060   1.550       .  S
C2038      C2046   1.387       .  A
C2039      C2050   1.388       .  A
C2040      C2054   1.390       .  A
C2041      C3030   1.387       .  A
C2041      C2044   1.377       .  A
C2042      C3031   1.389       .  A
C2042      C2048   1.392       .  A
C2043      C3032   1.388       .  A
C2043      C2051   1.378       .  A
C2044      H2057   1.077       .  S
C2044      N2045   1.357       .  A
N2045      C3038   1.361       .  A
N2045      C2125   1.448       .  S
C2046      H2047   1.085       .  S
C2048      H2058   1.081       .  S
C2048      N2049   1.369       .  A
N2049      C3042   1.359       .  A
C2050      H2056   1.081       .  S
C2051      H2053   1.079       .  S
C2051      N2052   1.356       .  A
N2052      C3046   1.366       .  A
N2052      C2109   1.453       .  S
C2054      H2055   1.081       .  S
C2059      C2061   1.540       .  S
C2059      C2063   1.536       .  S
C2059      C2062   1.550       .  S
C2060      C2064   1.550       .  S
C2060      C2066   1.548       .  S
C2060      C2065   1.548       .  S
C2061      C2069   1.379       .  A
C2061      C2064   1.391       .  A
C2062      C2073   1.390       .  A
C2062      C2065   1.390       .  A
C2063      C2077   1.375       .  A
C2063      C2066   1.387       .  A
C2064      C2067   1.388       .  A
C2065      C2071   1.386       .  A
C2066      C2074   1.390       .  A
C2067      H2080   1.081       .  S
C2067      N2068   1.365       .  A
N2068      C2069   1.354       .  A
N2068      C2189   1.448       .  S
C2069      H2070   1.081       .  S
C2071      H2081   1.081       .  S
C2071      N2072   1.358       .  A
N2072      C2073   1.369       .  A
N2072      N2591   1.424       .  S
C2073      H2079   1.083       .  S
C2074      H2076   1.081       .  S
C2074      N2075   1.364       .  A
N2075      C2077   1.353       .  A
N2075      C2173   1.446       .  S
C2077      H2078   1.078       .  S
C2082      C2084   1.549       .  S
C2082      C2086   1.548       .  S
C2082      C2085   1.547       .  S
C2083      C2087   1.542       .  S
C2083      C2089   1.538       .  S
C2083      C2088   1.550       .  S
C2084      C2092   1.389       .  A
C2084      C2087   1.388       .  A
C2085      C2096   1.385       .  A
C2085      C2088   1.389       .  A
C2086      C2100   1.388       .  A
C2086      C2089   1.388       .  A
C2087      C2090   1.381       .  A
C2088      C2094   1.392       .  A
C2089      C2097   1.377       .  A
C2090      H2103   1.082       .  S
C2090      N2091   1.354       .  A
N2091      C2092   1.364       .  A
N2091      C2205   1.449       .  S
C2092      H2093   1.082       .  S
C2094      H2104   1.082       .  S
C2094      N2095   1.369       .  A
N2095      C2096   1.358       .  A
N2095      N2568   1.425   1_545  S
C2096      H2102   1.080       .  S
C2097      H2099   1.077       .  S
C2097      N2098   1.357       .  A
N2098      C2100   1.365       .  A
N2098      C2218   1.451       .  S
C2100      H2101   1.080       .  S
C2105      C2110   1.405       .  A
C2105      H2112   1.084       .  S
C2106      C3097   1.403       .  A
C2106      C2107   1.425       .  A
C2107      C2114   1.507       .  S
C2107      C2108   1.415       .  A
C2108      C2109   1.405       .  A
C2108      H2113   1.084       .  S
C2109      C3102   1.415       .  A
C2110      C2111   1.495       .  S
C2111      H2115   1.108       .  S
C2111      H2116   1.104       .  S
C2111      H2117   1.111       .  S
C2114      H2118   1.106       .  S
C2114      H2119   1.110       .  S
C2114      H2120   1.112       .  S
C2121      C2122   1.411       .  A
C2121      C2126   1.410       .  A
C2121      H2128   1.084       .  S
C2122      C3115   1.415       .  A
C2123      C2130   1.504       .  S
C2123      C2124   1.410       .  A
C2124      H2129   1.083       .  S
C2125      C3116   1.407       .  A
C2125      C2126   1.413       .  A
C2126      C2127   1.506       .  S
C2127      H2131   1.111       .  S
C2127      H2132   1.109       .  S
C2127      H2133   1.109       .  S
C2130      H2134   1.109       .  S
C2130      H2135   1.110       .  S
C2130      H2136   1.107       .  S
C2137      C2142   1.408       .  A
C2137      H2144   1.085       .  S
C2138      C3129   1.409       .  A
C2138      C2139   1.413       .  A
C2139      C2146   1.504       .  S
C2139      C2140   1.410       .  A
C2140      C2141   1.407       .  A
C2140      H2145   1.086       .  S
C2141      C3134   1.409       .  A
C2142      C2143   1.507       .  S
C2143      H2147   1.111   1_545  S
C2143      H2148   1.108       .  S
C2143      H2149   1.110   1_545  S
C2146      H2150   1.111       .  S
C2146      H2151   1.109       .  S
C2146      H2152   1.108       .  S
C2153      C2154   1.401       .  A
C2153      C2158   1.405       .  A
C2153      H2160   1.084       .  S
C2154      C3147   1.425       .  A
C2155      C2162   1.507   1_545  S
C2155      C2156   1.413       .  A
C2156      H2161   1.083       .  S
C2157      C3148   1.402       .  A
C2157      C2158   1.415       .  A
C2158      C2159   1.497       .  S
C2159      H2163   1.109       .  S
C2159      H2164   1.111       .  S
C2159      H2165   1.105       .  S
C2162      H2166   1.110   1_565  S
C2162      H2167   1.106       .  S
C2162      H2168   1.111       .  S
C2169      C2170   1.400       .  A
C2169      C2174   1.404       .  A
C2169      H2176   1.084       .  S
C2170      C2171   1.425       .  A
C2171      C2178   1.506       .  S
C2171      C2172   1.410       .  A
C2172      C2173   1.400       .  A
C2172      H2177   1.083       .  S
C2173      C2174   1.414       .  A
C2174      C2175   1.492       .  S
C2175      H2179   1.109       .  S
C2175      H2180   1.111       .  S
C2175      H2181   1.103       .  S
C2178      H2182   1.109       .  S
C2178      H2183   1.105       .  S
C2178      H2184   1.111       .  S
C2185      C2186   1.400       .  A
C2185      C2190   1.403       .  A
C2185      H2192   1.085       .  S
C2186      C2187   1.424       .  A
C2187      C2194   1.505       .  S
C2187      C2188   1.409       .  A
C2188      C2189   1.402       .  A
C2188      H2193   1.085       .  S
C2189      C2190   1.415       .  A
C2190      C2191   1.494       .  S
C2191      H2195   1.104       .  S
C2191      H2196   1.110       .  S
C2191      H2197   1.109       .  S
C2194      H2198   1.107       .  S
C2194      H2199   1.110       .  S
C2194      H2200   1.111       .  S
C2201      C2202   1.402       .  A
C2201      C2206   1.406       .  A
C2201      H2208   1.085       .  S
C2202      C2203   1.424       .  A
C2203      C2210   1.504       .  S
C2203      C2204   1.410       .  A
C2204      C2205   1.402       .  A
C2204      H2209   1.084       .  S
C2205      C2206   1.415       .  A
C2206      C2207   1.497       .  S
C2207      H2211   1.110       .  S
C2207      H2212   1.110       .  S
C2207      H2213   1.104       .  S
C2210      H2214   1.107       .  S
C2210      H2215   1.105       .  S
C2210      H2216   1.112       .  S
C2217      C2218   1.403       .  A
C2217      C2222   1.411       .  A
C2217      H2224   1.082       .  S
C2218      C2219   1.415       .  A
C2219      C2226   1.493       .  S
C2219      C2220   1.406       .  A
C2220      C2221   1.401       .  A
C2220      H2225   1.082       .  S
C2221      C2222   1.424       .  A
C2222      C2223   1.504       .  S
C2223      H2227   1.111       .  S
C2223      H2228   1.107       .  S
C2223      H2229   1.108       .  S
C2226      H2230   1.106       .  S
C2226      H2231   1.109       .  S
C2226      H2232   1.108       .  S
O2233      C2243   1.279       .  A
O2234      C2244   1.279       .  A
O2234     Cu2241   2.022       .  S
O2235      C2245   1.277       .  A
O2236      C2246   1.277       .  A
O2236     Cu2241   1.996       .  S
O2237      C2246   1.280       .  A
O2238      C2245   1.279       .  A
O2238     Cu2242   2.004   1_556  S
O2239      C2244   1.279       .  A
O2240      C2243   1.279       .  A
O2240     Cu2242   2.023   1_556  S
C2243      C2450   1.497       .  S
C2244      C2434   1.497       .  S
C2245      C2418   1.489       .  S
C2246      C2469   1.497       .  S
O2248     Cu2751   2.005       .  S
O2249     Cu2503   2.007   1_556  S
O2250     Cu2255   2.023   1_545  S
O2251      C2260   1.280       .  A
O2251     Cu2256   2.012       .  S
O2252      C2259   1.281       .  A
O2252     Cu2504   2.032       .  S
O2253      C2258   1.281       .  A
O2253     Cu2752   2.027       .  S
O2254      C2257   1.278       .  A
Cu2255     O2744   2.004       .  S
Cu2255     O2497   2.010       .  S
Cu2256     O2500   2.031   1_545  S
Cu2256     O2749   2.021   1_545  S
Cu2256    Cu3247   2.363   1_545  S
C2257      O3239   1.281       .  A
C2257      C2386   1.489       .  S
C2258      O3240   1.277       .  A
C2258      C2370   1.495       .  S
C2259      O3241   1.279       .  A
C2259      C2354   1.499       .  S
C2260      O3242   1.279       .  A
C2260      C2402   1.496       .  S
C2261      C2263   1.549       .  S
C2261      C2265   1.547       .  S
C2261      C2264   1.549       .  S
C2261      C2331   1.549       .  S
C2262      C2266   1.541       .  S
C2262      C2268   1.540       .  S
C2262      C2267   1.547       .  S
C2262      C2330   1.549       .  S
C2263      C2271   1.389       .  A
C2263      C3258   1.389       .  A
C2264      C2275   1.387       .  A
C2264      C3259   1.390       .  A
C2265      C2279   1.389       .  A
C2265      C3260   1.388       .  A
C2266      C2269   1.378       .  A
C2267      C2273   1.391       .  A
C2268      C2276   1.377       .  A
C2269      H2282   1.076       .  S
N2270      C3261   1.356       .  A
N2270      C2271   1.365       .  A
N2270      C2405   1.452       .  S
C2271      H2272   1.079       .  S
C2273      H2283   1.080       .  S
N2274      C3265   1.368       .  A
N2274      C2275   1.361       .  A
N2274      N2297   1.425       .  S
C2275      H2281   1.080       .  S
C2276      H2278   1.077       .  S
N2277      C3268   1.355       .  A
N2277      C2279   1.361       .  A
N2277      C2389   1.443       .  S
C2279      H2280   1.082       .  S
C2284      C2286   1.546       .  S
C2284      C2288   1.554       .  S
C2284      C2287   1.552       .  S
C2284      C2307   1.551       .  S
C2285      C2289   1.538       .  S
C2285      C2291   1.542       .  S
C2285      C2290   1.550       .  S
C2285      C2308   1.550       .  S
C2286      C2294   1.388       .  A
C2287      C2298   1.388       .  A
C2288      C2302   1.391       .  A
C2289      C3278   1.388       .  A
C2289      C2292   1.375       .  A
C2290      C3279   1.389       .  A
C2290      C2296   1.391       .  A
C2291      C3280   1.388       .  A
C2291      C2299   1.378       .  A
C2292      H2305   1.076       .  S
C2292      N2293   1.356       .  A
N2293      C3286   1.361       .  A
N2293      C2373   1.445       .  S
C2294      H2295   1.082       .  S
C2296      H2306   1.080       .  S
C2296      N2297   1.369       .  A
N2297      C3290   1.360       .  A
C2298      H2304   1.080       .  S
C2299      H2301   1.081       .  S
C2299      N2300   1.357       .  A
N2300      C3294   1.364       .  A
N2300      C2357   1.451       .  S
C2302      H2303   1.082       .  S
C2307      C2309   1.542       .  S
C2307      C2311   1.535       .  S
C2307      C2310   1.548       .  S
C2308      C2312   1.552       .  S
C2308      C2314   1.546       .  S
C2308      C2313   1.546       .  S
C2309      C2317   1.381       .  A
C2309      C2312   1.391       .  A
C2310      C2321   1.388       .  A
C2310      C2313   1.390       .  A
C2311      C2325   1.373       .  A
C2311      C2314   1.388       .  A
C2312      C2315   1.390       .  A
C2313      C2319   1.384       .  A
C2314      C2322   1.388       .  A
C2315      H2328   1.081       .  S
C2315      N2316   1.364       .  A
N2316      C2317   1.355       .  A
N2316      C2437   1.450       .  S
C2317      H2318   1.082       .  S
C2319      H2329   1.082       .  S
C2319      N2320   1.358       .  A
N2320      C2321   1.368       .  A
N2320      N2839   1.423       .  S
C2321      H2327   1.082       .  S
C2322      H2324   1.085       .  S
C2322      N2323   1.362       .  A
N2323      C2325   1.353       .  A
N2323      C2421   1.445       .  S
C2325      H2326   1.082       .  S
C2330      C2332   1.550       .  S
C2330      C2334   1.548       .  S
C2330      C2333   1.546       .  S
C2331      C2335   1.540       .  S
C2331      C2337   1.539       .  S
C2331      C2336   1.549       .  S
C2332      C2340   1.389       .  A
C2332      C2335   1.389       .  A
C2333      C2344   1.385       .  A
C2333      C2336   1.389       .  A
C2334      C2348   1.390       .  A
C2334      C2337   1.388       .  A
C2335      C2338   1.380       .  A
C2336      C2342   1.390       .  A
C2337      C2345   1.375       .  A
C2338      H2351   1.080       .  S
C2338      N2339   1.354       .  A
N2339      C2340   1.365       .  A
N2339      C2453   1.450       .  S
C2340      H2341   1.082       .  S
C2342      H2352   1.081       .  S
C2342      N2343   1.368       .  A
N2343      C2344   1.359       .  A
N2343      N2816   1.424   1_545  S
C2344      H2350   1.081       .  S
C2345      H2347   1.086       .  S
C2345      N2346   1.356       .  A
N2346      C2348   1.364       .  A
N2346      C2466   1.451       .  S
C2348      H2349   1.078       .  S
C2353      C2358   1.406       .  A
C2353      H2360   1.085       .  S
C2354      C3345   1.403       .  A
C2354      C2355   1.425       .  A
C2355      C2362   1.507       .  S
C2355      C2356   1.413       .  A
C2356      C2357   1.404       .  A
C2356      H2361   1.083       .  S
C2357      C3350   1.415       .  A
C2358      C2359   1.496       .  S
C2359      H2363   1.108       .  S
C2359      H2364   1.105       .  S
C2359      H2365   1.111       .  S
C2362      H2366   1.106       .  S
C2362      H2367   1.110       .  S
C2362      H2368   1.111       .  S
C2369      C2370   1.411       .  A
C2369      C2374   1.409       .  A
C2369      H2376   1.084       .  S
C2370      C3363   1.416       .  A
C2371      C2378   1.505       .  S
C2371      C2372   1.409       .  A
C2372      H2377   1.086       .  S
C2373      C3364   1.406       .  A
C2373      C2374   1.411       .  A
C2374      C2375   1.507       .  S
C2375      H2379   1.111       .  S
C2375      H2380   1.110       .  S
C2375      H2381   1.108       .  S
C2378      H2382   1.109       .  S
C2378      H2383   1.110       .  S
C2378      H2384   1.108       .  S
C2385      C2390   1.409       .  A
C2385      H2392   1.085       .  S
C2386      C3377   1.409       .  A
C2386      C2387   1.416       .  A
C2387      C2394   1.505       .  S
C2387      C2388   1.410       .  A
C2388      C2389   1.406       .  A
C2388      H2393   1.085       .  S
C2389      C3382   1.411       .  A
C2390      C2391   1.507       .  S
C2391      H2395   1.111   1_545  S
C2391      H2396   1.108       .  S
C2391      H2397   1.110   1_545  S
C2394      H2398   1.109       .  S
C2394      H2399   1.108       .  S
C2394      H2400   1.111       .  S
C2401      C2402   1.400       .  A
C2401      C2406   1.405       .  A
C2401      H2408   1.083       .  S
C2402      C3395   1.425       .  A
C2403      C2410   1.507   1_545  S
C2403      C2404   1.412       .  A
C2404      H2409   1.084       .  S
C2405      C3396   1.404       .  A
C2405      C2406   1.415       .  A
C2406      C2407   1.493       .  S
C2407      H2411   1.107       .  S
C2407      H2412   1.110       .  S
C2407      H2413   1.105       .  S
C2410      H2414   1.110   1_565  S
C2410      H2415   1.107       .  S
C2410      H2416   1.111       .  S
C2417      C2418   1.401       .  A
C2417      C2422   1.404       .  A
C2417      H2424   1.084       .  S
C2418      C2419   1.423       .  A
C2419      C2426   1.506       .  S
C2419      C2420   1.406       .  A
C2420      C2421   1.400       .  A
C2420      H2425   1.083       .  S
C2421      C2422   1.414       .  A
C2422      C2423   1.494       .  S
C2423      H2427   1.109       .  S
C2423      H2428   1.111       .  S
C2423      H2429   1.104       .  S
C2426      H2430   1.109       .  S
C2426      H2431   1.105       .  S
C2426      H2432   1.111       .  S
C2433      C2434   1.403       .  A
C2433      C2438   1.407       .  A
C2433      H2440   1.084       .  S
C2434      C2435   1.425       .  A
C2435      C2442   1.506       .  S
C2435      C2436   1.410       .  A
C2436      C2437   1.401       .  A
C2436      H2441   1.084       .  S
C2437      C2438   1.415       .  A
C2438      C2439   1.495       .  S
C2439      H2443   1.103       .  S
C2439      H2444   1.110       .  S
C2439      H2445   1.109       .  S
C2442      H2446   1.106       .  S
C2442      H2447   1.109       .  S
C2442      H2448   1.111       .  S
C2449      C2450   1.402       .  A
C2449      C2454   1.406       .  A
C2449      H2456   1.084       .  S
C2450      C2451   1.424       .  A
C2451      C2458   1.504       .  S
C2451      C2452   1.411       .  A
C2452      C2453   1.403       .  A
C2452      H2457   1.084       .  S
C2453      C2454   1.415       .  A
C2454      C2455   1.495       .  S
C2455      H2459   1.109       .  S
C2455      H2460   1.110       .  S
C2455      H2461   1.104       .  S
C2458      H2462   1.108       .  S
C2458      H2463   1.106       .  S
C2458      H2464   1.111       .  S
C2465      C2466   1.403       .  A
C2465      C2470   1.411       .  A
C2465      H2472   1.083       .  S
C2466      C2467   1.416       .  A
C2467      C2474   1.497       .  S
C2467      C2468   1.406       .  A
C2468      C2469   1.404       .  A
C2468      H2473   1.084       .  S
C2469      C2470   1.423       .  A
C2470      C2471   1.504       .  S
C2471      H2475   1.111       .  S
C2471      H2476   1.107       .  S
C2471      H2477   1.108       .  S
C2474      H2478   1.106       .  S
C2474      H2479   1.109       .  S
C2474      H2480   1.110       .  S
O2481      C2491   1.279       .  A
O2481     Cu2737   2.008       .  S
O2482      C2492   1.278       .  A
O2482     Cu2489   2.013   1_554  S
O2483      C2493   1.277       .  A
O2483     Cu2737   2.012       .  S
O2484      C2494   1.279       .  A
O2484     Cu2489   2.006   1_554  S
O2485      C2494   1.279       .  A
O2485     Cu2738   2.022       .  S
O2486      C2493   1.280       .  A
O2486     Cu2490   2.010       .  S
O2487      C2492   1.279       .  A
O2487     Cu2738   2.009       .  S
O2488      C2491   1.279       .  A
O2488     Cu2490   2.020       .  S
Cu2489     O2729   2.008       .  S
Cu2489     O2731   2.012       .  S
Cu2489    Cu2738   2.362   1_556  S
Cu2490     O2733   2.024       .  S
Cu2490     O2735   2.008       .  S
Cu2490    Cu2737   2.361       .  S
C2491      C2698   1.495       .  S
C2492      C2682   1.493       .  S
C2493      C2666   1.493       .  S
C2494      C2717   1.497       .  S
O2495     Cu2751   2.016       .  S
O2498     Cu2503   2.018       .  S
O2499      C2508   1.280       .  A
O2499     Cu2504   2.010   1_554  S
O2500      C2507   1.280       .  A
O2501      C2506   1.280       .  A
O2502      C2505   1.279       .  A
O2502     Cu2752   2.011       .  S
Cu2503     O2743   2.014   1_554  S
Cu2504     O2750   2.007       .  S
Cu2504    Cu3495   2.363       .  S
C2505      O3487   1.280       .  A
C2505      C2634   1.489       .  S
C2506      O3488   1.279       .  A
C2506      C2618   1.495       .  S
C2507      O3489   1.280       .  A
C2507      C2602   1.500       .  S
C2508      O3490   1.278       .  A
C2508      C2650   1.491       .  S
C2509      C2511   1.546       .  S
C2509      C2513   1.545       .  S
C2509      C2512   1.548       .  S
C2509      C2579   1.547       .  S
C2510      C2514   1.539       .  S
C2510      C2516   1.543       .  S
C2510      C2515   1.549       .  S
C2510      C2578   1.549       .  S
C2511      C2519   1.387       .  A
C2511      C3506   1.390       .  A
C2512      C2523   1.385       .  A
C2512      C3507   1.390       .  A
C2513      C2527   1.387       .  A
C2513      C3508   1.387       .  A
C2514      C2517   1.377       .  A
C2515      C2521   1.392       .  A
C2516      C2524   1.379       .  A
C2517      H2530   1.080       .  S
N2518      C3509   1.355       .  A
N2518      C2519   1.364       .  A
N2518      C2653   1.447       .  S
C2519      H2520   1.080       .  S
C2521      H2531   1.080       .  S
N2522      C3513   1.369       .  A
N2522      C2523   1.359       .  A
N2522      N2545   1.425       .  S
C2523      H2529   1.081       .  S
C2524      H2526   1.074       .  S
N2525      C3516   1.355       .  A
N2525      C2527   1.360       .  A
N2525      C2637   1.442       .  S
C2527      H2528   1.080       .  S
C2532      C2534   1.546       .  S
C2532      C2536   1.550       .  S
C2532      C2535   1.552       .  S
C2532      C2555   1.548       .  S
C2533      C2537   1.539       .  S
C2533      C2539   1.542       .  S
C2533      C2538   1.550       .  S
C2533      C2556   1.551       .  S
C2534      C2542   1.388       .  A
C2535      C2546   1.388       .  A
C2536      C2550   1.390       .  A
C2537      C3526   1.387       .  A
C2537      C2540   1.376       .  A
C2538      C3527   1.389       .  A
C2538      C2544   1.391       .  A
C2539      C3528   1.388       .  A
C2539      C2547   1.378       .  A
C2540      H2553   1.077       .  S
C2540      N2541   1.356       .  A
N2541      C3534   1.362       .  A
N2541      C2621   1.447       .  S
C2542      H2543   1.082       .  S
C2544      H2554   1.081       .  S
C2544      N2545   1.369       .  A
N2545      C3538   1.359       .  A
C2546      H2552   1.081       .  S
C2547      H2549   1.079       .  S
C2547      N2548   1.356       .  A
N2548      C3542   1.365       .  A
N2548      C2605   1.453       .  S
C2550      H2551   1.082       .  S
C2555      C2557   1.539       .  S
C2555      C2559   1.536       .  S
C2555      C2558   1.549       .  S
C2556      C2560   1.552       .  S
C2556      C2562   1.549       .  S
C2556      C2561   1.548       .  S
C2557      C2565   1.379       .  A
C2557      C2560   1.391       .  A
C2558      C2569   1.390       .  A
C2558      C2561   1.390       .  A
C2559      C2573   1.375       .  A
C2559      C2562   1.388       .  A
C2560      C2563   1.390       .  A
C2561      C2567   1.386       .  A
C2562      C2570   1.390       .  A
C2563      H2576   1.081       .  S
C2563      N2564   1.365       .  A
N2564      C2565   1.353       .  A
N2564      C2685   1.448       .  S
C2565      H2566   1.083       .  S
C2567      H2577   1.082       .  S
C2567      N2568   1.358       .  A
N2568      C2569   1.369       .  A
C2569      H2575   1.084       .  S
C2570      H2572   1.082       .  S
C2570      N2571   1.364       .  A
N2571      C2573   1.353       .  A
N2571      C2669   1.447       .  S
C2573      H2574   1.081       .  S
C2578      C2580   1.547       .  S
C2578      C2582   1.549       .  S
C2578      C2581   1.547       .  S
C2579      C2583   1.541       .  S
C2579      C2585   1.539       .  S
C2579      C2584   1.551       .  S
C2580      C2588   1.387       .  A
C2580      C2583   1.388       .  A
C2581      C2592   1.385       .  A
C2581      C2584   1.389       .  A
C2582      C2596   1.389       .  A
C2582      C2585   1.388       .  A
C2583      C2586   1.381       .  A
C2584      C2590   1.392       .  A
C2585      C2593   1.376       .  A
C2586      H2599   1.081       .  S
C2586      N2587   1.354       .  A
N2587      C2588   1.363       .  A
N2587      C2701   1.448       .  S
C2588      H2589   1.084       .  S
C2590      H2600   1.082       .  S
C2590      N2591   1.369       .  A
N2591      C2592   1.358       .  A
C2592      H2598   1.080       .  S
C2593      H2595   1.079       .  S
C2593      N2594   1.356       .  A
N2594      C2596   1.365       .  A
N2594      C2714   1.450       .  S
C2596      H2597   1.081       .  S
C2601      C2606   1.405       .  A
C2601      H2608   1.085       .  S
C2602      C3593   1.402       .  A
C2602      C2603   1.425       .  A
C2603      C2610   1.507       .  S
C2603      C2604   1.414       .  A
C2604      C2605   1.405       .  A
C2604      H2609   1.084       .  S
C2605      C3598   1.414       .  A
C2606      C2607   1.495       .  S
C2607      H2611   1.108       .  S
C2607      H2612   1.104       .  S
C2607      H2613   1.111       .  S
C2610      H2614   1.106   1_565  S
C2610      H2615   1.111       .  S
C2610      H2616   1.111   1_565  S
C2617      C2618   1.410       .  A
C2617      C2622   1.410       .  A
C2617      H2624   1.084       .  S
C2618      C3611   1.414       .  A
C2619      C2626   1.504       .  S
C2619      C2620   1.409       .  A
C2620      H2625   1.083       .  S
C2621      C3612   1.407       .  A
C2621      C2622   1.413       .  A
C2622      C2623   1.506       .  S
C2623      H2627   1.111   1_565  S
C2623      H2628   1.109   1_565  S
C2623      H2629   1.109       .  S
C2626      H2630   1.109       .  S
C2626      H2631   1.110       .  S
C2626      H2632   1.107       .  S
C2633      C2638   1.410       .  A
C2633      H2640   1.084       .  S
C2634      C3625   1.410       .  A
C2634      C2635   1.415       .  A
C2635      C2642   1.504       .  S
C2635      C2636   1.409       .  A
C2636      C2637   1.407       .  A
C2636      H2641   1.085       .  S
C2637      C3630   1.410       .  A
C2638      C2639   1.507       .  S
C2639      H2643   1.111       .  S
C2639      H2644   1.108       .  S
C2639      H2645   1.110       .  S
C2642      H2646   1.108       .  S
C2642      H2647   1.106       .  S
C2642      H2648   1.111       .  S
C2649      C2650   1.401       .  A
C2649      C2654   1.404       .  A
C2649      H2656   1.085       .  S
C2650      C3643   1.424       .  A
C2651      C2658   1.507       .  S
C2651      C2652   1.411       .  A
C2652      H2657   1.082       .  S
C2653      C3644   1.402       .  A
C2653      C2654   1.415       .  A
C2654      C2655   1.496       .  S
C2655      H2659   1.109       .  S
C2655      H2660   1.111       .  S
C2655      H2661   1.104       .  S
C2658      H2662   1.110       .  S
C2658      H2663   1.106       .  S
C2658      H2664   1.111       .  S
C2665      C2666   1.400       .  A
C2665      C2670   1.404       .  A
C2665      H2672   1.084       .  S
C2666      C2667   1.425       .  A
C2667      C2674   1.505       .  S
C2667      C2668   1.410       .  A
C2668      C2669   1.401       .  A
C2668      H2673   1.083       .  S
C2669      C2670   1.414       .  A
C2670      C2671   1.492       .  S
C2671      H2675   1.109       .  S
C2671      H2676   1.111       .  S
C2671      H2677   1.104       .  S
C2674      H2678   1.109       .  S
C2674      H2679   1.105       .  S
C2674      H2680   1.111       .  S
C2681      C2682   1.401       .  A
C2681      C2686   1.405       .  A
C2681      H2688   1.083       .  S
C2682      C2683   1.424       .  A
C2683      C2690   1.505       .  S
C2683      C2684   1.409       .  A
C2684      C2685   1.401       .  A
C2684      H2689   1.083       .  S
C2685      C2686   1.414       .  A
C2686      C2687   1.494       .  S
C2687      H2691   1.103       .  S
C2687      H2692   1.111       .  S
C2687      H2693   1.109       .  S
C2690      H2694   1.106       .  S
C2690      H2695   1.110       .  S
C2690      H2696   1.111       .  S
C2697      C2698   1.401       .  A
C2697      C2702   1.404       .  A
C2697      H2704   1.085       .  S
C2698      C2699   1.424       .  A
C2699      C2706   1.504       .  S
C2699      C2700   1.410       .  A
C2700      C2701   1.402       .  A
C2700      H2705   1.086       .  S
C2701      C2702   1.414       .  A
C2702      C2703   1.496       .  S
C2703      H2707   1.110       .  S
C2703      H2708   1.110       .  S
C2703      H2709   1.104       .  S
C2706      H2710   1.107       .  S
C2706      H2711   1.106       .  S
C2706      H2712   1.112       .  S
C2713      C2714   1.403       .  A
C2713      C2718   1.412       .  A
C2713      H2720   1.081       .  S
C2714      C2715   1.415       .  A
C2715      C2722   1.494       .  S
C2715      C2716   1.406       .  A
C2716      C2717   1.402       .  A
C2716      H2721   1.082       .  S
C2717      C2718   1.424       .  A
C2718      C2719   1.504       .  S
C2719      H2723   1.111       .  S
C2719      H2724   1.107       .  S
C2719      H2725   1.108       .  S
C2722      H2726   1.106       .  S
C2722      H2727   1.110       .  S
C2722      H2728   1.108       .  S
O2729      C2739   1.279       .  A
O2730      C2740   1.279       .  A
O2730     Cu2737   2.021       .  S
O2731      C2741   1.278       .  A
O2732      C2742   1.278       .  A
O2732     Cu2737   2.000       .  S
O2733      C2742   1.280       .  A
O2734      C2741   1.279       .  A
O2734     Cu2738   2.005   1_556  S
O2735      C2740   1.279       .  A
O2736      C2739   1.280       .  A
O2736     Cu2738   2.026   1_556  S
C2739      C2946   1.498       .  S
C2740      C2930   1.496       .  S
C2741      C2914   1.491       .  S
C2742      C2965   1.496       .  S
O2746     Cu2751   2.026       .  S
O2747      C2756   1.281       .  A
O2747     Cu2752   2.015       .  S
O2748      C2755   1.280       .  A
O2749      C2754   1.281       .  A
O2750      C2753   1.277       .  A
Cu2752    Cu3743   2.363       .  S
C2753      O3735   1.280       .  A
C2753      C2882   1.488       .  S
C2754      O3736   1.278       .  A
C2754      C2866   1.493       .  S
C2755      O3737   1.279       .  A
C2755      C2850   1.498       .  S
C2756      O3738   1.279       .  A
C2756      C2898   1.497       .  S
C2757      C2759   1.550       .  S
C2757      C2761   1.547       .  S
C2757      C2760   1.548       .  S
C2757      C2827   1.549       .  S
C2758      C2762   1.541       .  S
C2758      C2764   1.540       .  S
C2758      C2763   1.549       .  S
C2758      C2826   1.548       .  S
C2759      C2767   1.389       .  A
C2759      C3754   1.390       .  A
C2760      C2771   1.387       .  A
C2760      C3755   1.390       .  A
C2761      C2775   1.388       .  A
C2761      C3756   1.388       .  A
C2762      C2765   1.378       .  A
C2763      C2769   1.392       .  A
C2764      C2772   1.377       .  A
C2765      H2778   1.080       .  S
N2766      C3757   1.356       .  A
N2766      C2767   1.365       .  A
N2766      C2901   1.451       .  S
C2767      H2768   1.079       .  S
C2769      H2779   1.081       .  S
N2770      C3761   1.369       .  A
N2770      C2771   1.360       .  A
N2770      N2793   1.425       .  S
C2771      H2777   1.080       .  S
C2772      H2774   1.080       .  S
N2773      C3764   1.353       .  A
N2773      C2775   1.361       .  A
N2773      C2885   1.441       .  S
C2775      H2776   1.083       .  S
C2780      C2782   1.547       .  S
C2780      C2784   1.553       .  S
C2780      C2783   1.551       .  S
C2780      C2803   1.550       .  S
C2781      C2785   1.540       .  S
C2781      C2787   1.542       .  S
C2781      C2786   1.550       .  S
C2781      C2804   1.550       .  S
C2782      C2790   1.388       .  A
C2783      C2794   1.388       .  A
C2784      C2798   1.391       .  A
C2785      C3774   1.388       .  A
C2785      C2788   1.376       .  A
C2786      C3775   1.389       .  A
C2786      C2792   1.392       .  A
C2787      C3776   1.388       .  A
C2787      C2795   1.378       .  A
C2788      H2801   1.080       .  S
C2788      N2789   1.356       .  A
N2789      C3782   1.360       .  A
N2789      C2869   1.445       .  S
C2790      H2791   1.083       .  S
C2792      H2802   1.080       .  S
C2792      N2793   1.369       .  A
N2793      C3786   1.359       .  A
C2794      H2800   1.082       .  S
C2795      H2797   1.075       .  S
C2795      N2796   1.357       .  A
N2796      C3790   1.364       .  A
N2796      C2853   1.451       .  S
C2798      H2799   1.081       .  S
C2803      C2805   1.542       .  S
C2803      C2807   1.537       .  S
C2803      C2806   1.549       .  S
C2804      C2808   1.551       .  S
C2804      C2810   1.547       .  S
C2804      C2809   1.547       .  S
C2805      C2813   1.381       .  A
C2805      C2808   1.390       .  A
C2806      C2817   1.389       .  A
C2806      C2809   1.390       .  A
C2807      C2821   1.375       .  A
C2807      C2810   1.388       .  A
C2808      C2811   1.390       .  A
C2809      C2815   1.385       .  A
C2810      C2818   1.389       .  A
C2811      H2824   1.080       .  S
C2811      N2812   1.364       .  A
N2812      C2813   1.355       .  A
N2812      C2933   1.450       .  S
C2813      H2814   1.081       .  S
C2815      H2825   1.080       .  S
C2815      N2816   1.359       .  A
N2816      C2817   1.368       .  A
C2817      H2823   1.081       .  S
C2818      H2820   1.084       .  S
C2818      N2819   1.363       .  A
N2819      C2821   1.354       .  A
N2819      C2917   1.446       .  S
C2821      H2822   1.081       .  S
C2826      C2828   1.551       .  S
C2826      C2830   1.548       .  S
C2826      C2829   1.546       .  S
C2827      C2831   1.540       .  S
C2827      C2833   1.539       .  S
C2827      C2832   1.548       .  S
C2828      C2836   1.390       .  A
C2828      C2831   1.389       .  A
C2829      C2840   1.384       .  A
C2829      C2832   1.390       .  A
C2830      C2844   1.390       .  A
C2830      C2833   1.388       .  A
C2831      C2834   1.380       .  A
C2832      C2838   1.389       .  A
C2833      C2841   1.375       .  A
C2834      H2847   1.082       .  S
C2834      N2835   1.354       .  A
N2835      C2836   1.365       .  A
N2835      C2949   1.450       .  S
C2836      H2837   1.082       .  S
C2838      H2848   1.081       .  S
C2838      N2839   1.368       .  A
N2839      C2840   1.358       .  A
C2840      H2846   1.082       .  S
C2841      H2843   1.084       .  S
C2841      N2842   1.355       .  A
N2842      C2844   1.364       .  A
N2842      C2962   1.450       .  S
C2844      H2845   1.080       .  S
C2849      C2854   1.406       .  A
C2849      H2856   1.085       .  S
C2850      C3841   1.403       .  A
C2850      C2851   1.424       .  A
C2851      C2858   1.507       .  S
C2851      C2852   1.412       .  A
C2852      C2853   1.403       .  A
C2852      H2857   1.085       .  S
C2853      C3846   1.414       .  A
C2854      C2855   1.495       .  S
C2855      H2859   1.108       .  S
C2855      H2860   1.104       .  S
C2855      H2861   1.111       .  S
C2858      H2862   1.106   1_565  S
C2858      H2863   1.111       .  S
C2858      H2864   1.111   1_565  S
C2865      C2866   1.410       .  A
C2865      C2870   1.408       .  A
C2865      H2872   1.084       .  S
C2866      C3859   1.415       .  A
C2867      C2874   1.505       .  S
C2867      C2868   1.410       .  A
C2868      H2873   1.085       .  S
C2869      C3860   1.406       .  A
C2869      C2870   1.411       .  A
C2870      C2871   1.506       .  S
C2871      H2875   1.111   1_565  S
C2871      H2876   1.110   1_565  S
C2871      H2877   1.108       .  S
C2874      H2878   1.109       .  S
C2874      H2879   1.110       .  S
C2874      H2880   1.108       .  S
C2881      C2886   1.407       .  A
C2881      H2888   1.084       .  S
C2882      C3873   1.409       .  A
C2882      C2883   1.415       .  A
C2883      C2890   1.505       .  S
C2883      C2884   1.410       .  A
C2884      C2885   1.406       .  A
C2884      H2889   1.085       .  S
C2885      C3878   1.411       .  A
C2886      C2887   1.506       .  S
C2887      H2891   1.111       .  S
C2887      H2892   1.108       .  S
C2887      H2893   1.110       .  S
C2890      H2894   1.111       .  S
C2890      H2895   1.109       .  S
C2890      H2896   1.108       .  S
C2897      C2898   1.401       .  A
C2897      C2902   1.406       .  A
C2897      H2904   1.083       .  S
C2898      C3891   1.425       .  A
C2899      C2906   1.507       .  S
C2899      C2900   1.412       .  A
C2900      H2905   1.084       .  S
C2901      C3892   1.404       .  A
C2901      C2902   1.414       .  A
C2902      C2903   1.494       .  S
C2903      H2907   1.108       .  S
C2903      H2908   1.111       .  S
C2903      H2909   1.105       .  S
C2906      H2910   1.110       .  S
C2906      H2911   1.107       .  S
C2906      H2912   1.111       .  S
C2913      C2914   1.401       .  A
C2913      C2918   1.404       .  A
C2913      H2920   1.084       .  S
C2914      C2915   1.424       .  A
C2915      C2922   1.505       .  S
C2915      C2916   1.408       .  A
C2916      C2917   1.400       .  A
C2916      H2921   1.083       .  S
C2917      C2918   1.414       .  A
C2918      C2919   1.493       .  S
C2919      H2923   1.109       .  S
C2919      H2924   1.111       .  S
C2919      H2925   1.104       .  S
C2922      H2926   1.109       .  S
C2922      H2927   1.105       .  S
C2922      H2928   1.111       .  S
C2929      C2930   1.403       .  A
C2929      C2934   1.407       .  A
C2929      H2936   1.084       .  S
C2930      C2931   1.424       .  A
C2931      C2938   1.506       .  S
C2931      C2932   1.410       .  A
C2932      C2933   1.401       .  A
C2932      H2937   1.084       .  S
C2933      C2934   1.415       .  A
C2934      C2935   1.495       .  S
C2935      H2939   1.104       .  S
C2935      H2940   1.110       .  S
C2935      H2941   1.110       .  S
C2938      H2942   1.106       .  S
C2938      H2943   1.109       .  S
C2938      H2944   1.111       .  S
C2945      C2946   1.403       .  A
C2945      C2950   1.407       .  A
C2945      H2952   1.084       .  S
C2946      C2947   1.424       .  A
C2947      C2954   1.505       .  S
C2947      C2948   1.410       .  A
C2948      C2949   1.402       .  A
C2948      H2953   1.084       .  S
C2949      C2950   1.415       .  A
C2950      C2951   1.496       .  S
C2951      H2955   1.110       .  S
C2951      H2956   1.110       .  S
C2951      H2957   1.104       .  S
C2954      H2958   1.108       .  S
C2954      H2959   1.105       .  S
C2954      H2960   1.111       .  S
C2961      C2962   1.402       .  A
C2961      C2966   1.410       .  A
C2961      H2968   1.083       .  S
C2962      C2963   1.416       .  A
C2963      C2970   1.496       .  S
C2963      C2964   1.406       .  A
C2964      C2965   1.403       .  A
C2964      H2969   1.084       .  S
C2965      C2966   1.423       .  A
C2966      C2967   1.504       .  S
C2967      H2971   1.111       .  S
C2967      H2972   1.106       .  S
C2967      H2973   1.108       .  S
C2970      H2974   1.106       .  S
C2970      H2975   1.109       .  S
C2970      H2976   1.110       .  S
O2977      C2987   1.279       .  A
O2977     Cu3233   2.010       .  S
O2978      C2988   1.279       .  A
O2978     Cu2985   2.022       .  S
O2979      C2989   1.279       .  A
O2979     Cu3233   2.021       .  S
O2980      C2990   1.280       .  A
O2980     Cu2985   2.013       .  S
O2981      C2990   1.279       .  A
O2981     Cu3234   2.023       .  S
O2982      C2989   1.279       .  A
O2982     Cu2986   2.006       .  S
O2983      C2988   1.279       .  A
O2983     Cu3234   2.006       .  S
O2984      C2987   1.279       .  A
O2984     Cu2986   2.022       .  S
Cu2985     O3225   2.012   1_554  S
Cu2985     O3227   2.023   1_554  S
Cu2985    Cu3234   2.361       .  S
Cu2986     O3229   2.016       .  S
Cu2986     O3231   2.011       .  S
Cu2986    Cu3233   2.362       .  S
C2987      C3194   1.497       .  S
C2988      C3178   1.495       .  S
C2989      C3162   1.495       .  S
C2990      C3213   1.499       .  S
O2991     Cu3247   2.014   1_545  S
O2992     Cu3495   2.016   1_554  S
O2993     Cu3743   2.015       .  S
O2994     Cu2999   2.018   1_545  S
O2995      C3004   1.280   1_655  A
O2995     Cu3000   2.018   1_554  S
O2996      C3003   1.279       .  A
O2996     Cu3744   2.026       .  S
O2997      C3002   1.281       .  A
O2997     Cu3496   2.024   1_554  S
O2998      C3001   1.279   1_655  A
O2998     Cu3248   2.014       .  S
Cu2999     O3239   2.020   1_564  S
Cu2999     O3488   2.016       .  S
Cu2999     O3737   2.011   1_554  S
Cu3000     O3740   2.029   1_545  S
Cu3000     O3493   2.022   1_546  S
Cu3000     O3246   2.014       .  S
C3001      C3130   1.494       .  S
C3002      C3114   1.495       .  S
C3003      C3098   1.496       .  S
C3004      C3146   1.499       .  S
C3005      C3007   1.549       .  S
C3005      C3009   1.544       .  S
C3005      C3008   1.550       .  S
C3005      C3075   1.548       .  S
C3006      C3010   1.541       .  S
C3006      C3012   1.536       .  S
C3006      C3011   1.551       .  S
C3006      C3074   1.552       .  S
C3007      C3015   1.389       .  A
C3008      C3019   1.387       .  A
C3009      C3023   1.386       .  A
C3010      C3013   1.376       .  A
C3011      C3017   1.392       .  A
C3012      C3020   1.373       .  A
C3013      H3026   1.078       .  S
N3014      C3015   1.365   1_455  A
N3014      C3149   1.452       .  S
C3015      H3016   1.081       .  S
C3017      H3027   1.081       .  S
N3018      C3019   1.360   1_455  A
N3018      N3041   1.427       .  S
C3019      H3025   1.079       .  S
C3020      H3022   1.081       .  S
N3021      C3023   1.361   1_455  A
N3021      C3133   1.446       .  S
C3023      H3024   1.083       .  S
C3028      C3030   1.547       .  S
C3028      C3032   1.550       .  S
C3028      C3031   1.549       .  S
C3028      C3051   1.546       .  S
C3029      C3033   1.540       .  S
C3029      C3035   1.537       .  S
C3029      C3034   1.550       .  S
C3029      C3052   1.550       .  S
C3030      C3038   1.389       .  A
C3031      C3042   1.387       .  A
C3032      C3046   1.391       .  A
C3033      C3036   1.376       .  A
C3034      C3040   1.392       .  A
C3035      C3043   1.375       .  A
C3036      H3049   1.079       .  S
C3036      N3037   1.357       .  A
N3037      C3117   1.447       .  S
C3038      H3039   1.082       .  S
C3040      H3050   1.081       .  S
C3040      N3041   1.369   1_655  A
C3042      H3048   1.081       .  S
C3043      H3045   1.080       .  S
C3043      N3044   1.354       .  A
N3044      C3101   1.449       .  S
C3046      H3047   1.082       .  S
C3051      C3053   1.539       .  S
C3051      C3055   1.536       .  S
C3051      C3054   1.549       .  S
C3052      C3056   1.550       .  S
C3052      C3058   1.552       .  S
C3052      C3057   1.549       .  S
C3053      C3061   1.379       .  A
C3053      C3056   1.389       .  A
C3054      C3065   1.391       .  A
C3054      C3057   1.389       .  A
C3055      C3069   1.376       .  A
C3055      C3058   1.389       .  A
C3056      C3059   1.391       .  A
C3057      C3063   1.386       .  A
C3058      C3066   1.391       .  A
C3059      H3072   1.081       .  S
C3059      N3060   1.365       .  A
N3060      C3061   1.352       .  A
N3060      C3181   1.447       .  S
C3061      H3062   1.081       .  S
C3063      H3073   1.081       .  S
C3063      N3064   1.358       .  A
N3064      C3065   1.369       .  A
N3064      N3583   1.425       .  S
C3065      H3071   1.081       .  S
C3066      H3068   1.081       .  S
C3066      N3067   1.365       .  A
N3067      C3069   1.353       .  A
N3067      C3165   1.448       .  S
C3069      H3070   1.081       .  S
C3074      C3076   1.553       .  S
C3074      C3078   1.547       .  S
C3074      C3077   1.549       .  S
C3075      C3079   1.542       .  S
C3075      C3081   1.539       .  S
C3075      C3080   1.550       .  S
C3076      C3084   1.391       .  A
C3076      C3079   1.391       .  A
C3077      C3088   1.386       .  A
C3077      C3080   1.390       .  A
C3078      C3092   1.389       .  A
C3078      C3081   1.386       .  A
C3079      C3082   1.382       .  A
C3080      C3086   1.391       .  A
C3081      C3089   1.379       .  A
C3082      H3095   1.079       .  S
C3082      N3083   1.355       .  A
N3083      C3084   1.365       .  A
N3083      C3197   1.451       .  S
C3084      H3085   1.081       .  S
C3086      H3096   1.082       .  S
C3086      N3087   1.369       .  A
N3087      C3088   1.359       .  A
N3087      N3560   1.425   1_545  S
C3088      H3094   1.080       .  S
C3089      H3091   1.080       .  S
C3089      N3090   1.355       .  A
N3090      C3092   1.364       .  A
N3090      C3210   1.450       .  S
C3092      H3093   1.082       .  S
C3097      C3102   1.408       .  A
C3097      H3104   1.084       .  S
C3098      C3099   1.425       .  A
C3099      C3106   1.507       .  S
C3099      C3100   1.413       .  A
C3100      C3101   1.404       .  A
C3100      H3105   1.084       .  S
C3102      C3103   1.498       .  S
C3103      H3107   1.109       .  S
C3103      H3108   1.104       .  S
C3103      H3109   1.111       .  S
C3106      H3110   1.105       .  S
C3106      H3111   1.110       .  S
C3106      H3112   1.111       .  S
C3113      C3114   1.411       .  A
C3113      C3118   1.410       .  A
C3113      H3120   1.084       .  S
C3115      C3122   1.503       .  S
C3115      C3116   1.412       .  A
C3116      H3121   1.084       .  S
C3117      C3118   1.414       .  A
C3118      C3119   1.507       .  S
C3119      H3123   1.111       .  S
C3119      H3124   1.109       .  S
C3119      H3125   1.108       .  S
C3122      H3126   1.109       .  S
C3122      H3127   1.110       .  S
C3122      H3128   1.107       .  S
C3129      C3134   1.404       .  A
C3129      H3136   1.085       .  S
C3130      C3131   1.415   1_455  A
C3131      C3138   1.504       .  S
C3131      C3132   1.409       .  A
C3132      C3133   1.405   1_655  A
C3132      H3137   1.086       .  S
C3134      C3135   1.506       .  S
C3135      H3139   1.111   1_545  S
C3135      H3140   1.108       .  S
C3135      H3141   1.109   1_545  S
C3138      H3142   1.110       .  S
C3138      H3143   1.109       .  S
C3138      H3144   1.107       .  S
C3145      C3146   1.402   1_655  A
C3145      C3150   1.407       .  A
C3145      H3152   1.083       .  S
C3147      C3154   1.508       .  S
C3147      C3148   1.410       .  A
C3148      H3153   1.083       .  S
C3149      C3150   1.415   1_455  A
C3150      C3151   1.495       .  S
C3151      H3155   1.108       .  S
C3151      H3156   1.111       .  S
C3151      H3157   1.103       .  S
C3154      H3158   1.110       .  S
C3154      H3159   1.105   1_545  S
C3154      H3160   1.111   1_545  S
C3161      C3162   1.402       .  A
C3161      C3166   1.406       .  A
C3161      H3168   1.083       .  S
C3162      C3163   1.424       .  A
C3163      C3170   1.504       .  S
C3163      C3164   1.410       .  A
C3164      C3165   1.402       .  A
C3164      H3169   1.082       .  S
C3165      C3166   1.413       .  A
C3166      C3167   1.494       .  S
C3167      H3171   1.108       .  S
C3167      H3172   1.110       .  S
C3167      H3173   1.104       .  S
C3170      H3174   1.106       .  S
C3170      H3175   1.105       .  S
C3170      H3176   1.111       .  S
C3177      C3178   1.403       .  A
C3177      C3182   1.406       .  A
C3177      H3184   1.085       .  S
C3178      C3179   1.424       .  A
C3179      C3186   1.504       .  S
C3179      C3180   1.409       .  A
C3180      C3181   1.400       .  A
C3180      H3185   1.084       .  S
C3181      C3182   1.413       .  A
C3182      C3183   1.495       .  S
C3183      H3187   1.104       .  S
C3183      H3188   1.111       .  S
C3183      H3189   1.109       .  S
C3186      H3190   1.105       .  S
C3186      H3191   1.108       .  S
C3186      H3192   1.111       .  S
C3193      C3194   1.404       .  A
C3193      C3198   1.408       .  A
C3193      H3200   1.084       .  S
C3194      C3195   1.425       .  A
C3195      C3202   1.505       .  S
C3195      C3196   1.410       .  A
C3196      C3197   1.401       .  A
C3196      H3201   1.083       .  S
C3197      C3198   1.414       .  A
C3198      C3199   1.494       .  S
C3199      H3203   1.109       .  S
C3199      H3204   1.110       .  S
C3199      H3205   1.103       .  S
C3202      H3206   1.109       .  S
C3202      H3207   1.106       .  S
C3202      H3208   1.111       .  S
C3209      C3210   1.403       .  A
C3209      C3214   1.413       .  A
C3209      H3216   1.084       .  S
C3210      C3211   1.414       .  A
C3211      C3218   1.494       .  S
C3211      C3212   1.405       .  A
C3212      C3213   1.401       .  A
C3212      H3217   1.084       .  S
C3213      C3214   1.426       .  A
C3214      C3215   1.505       .  S
C3215      H3219   1.111       .  S
C3215      H3220   1.106       .  S
C3215      H3221   1.107       .  S
C3218      H3222   1.104       .  S
C3218      H3223   1.111       .  S
C3218      H3224   1.109       .  S
O3225      C3235   1.279       .  A
O3226      C3236   1.280       .  A
O3226     Cu3233   2.025       .  S
O3227      C3237   1.279       .  A
O3228      C3238   1.279       .  A
O3228     Cu3233   2.005       .  S
O3229      C3238   1.278       .  A
O3230      C3237   1.279       .  A
O3230     Cu3234   2.002   1_556  S
O3231      C3236   1.279       .  A
O3232      C3235   1.280       .  A
O3232     Cu3234   2.028   1_556  S
C3235      C3442   1.500       .  S
C3236      C3426   1.497       .  S
C3237      C3410   1.495       .  S
C3238      C3461   1.492       .  S
O3240     Cu3743   2.008       .  S
O3241     Cu3495   2.011       .  S
O3242     Cu3247   2.023   1_545  S
O3243      C3252   1.280   1_655  A
O3243     Cu3248   2.012       .  S
O3244      C3251   1.280       .  A
O3244     Cu3496   2.028       .  S
O3245      C3250   1.282       .  A
O3245     Cu3744   2.027       .  S
O3246      C3249   1.279   1_655  A
Cu3247     O3736   2.009       .  S
Cu3247     O3489   2.017       .  S
Cu3248     O3492   2.025   1_545  S
Cu3248     O3741   2.025   1_545  S
C3249      C3378   1.495       .  S
C3250      C3362   1.493       .  S
C3251      C3346   1.497       .  S
C3252      C3394   1.497       .  S
C3253      C3255   1.550       .  S
C3253      C3257   1.540       .  S
C3253      C3256   1.551       .  S
C3253      C3323   1.546       .  S
C3254      C3258   1.541       .  S
C3254      C3260   1.534       .  S
C3254      C3259   1.549       .  S
C3254      C3322   1.552       .  S
C3255      C3263   1.389       .  A
C3256      C3267   1.388       .  A
C3257      C3271   1.384       .  A
C3258      C3261   1.377       .  A
C3259      C3265   1.390       .  A
C3260      C3268   1.373       .  A
C3261      H3274   1.082       .  S
N3262      C3263   1.365   1_455  A
N3262      C3397   1.450       .  S
C3263      H3264   1.082       .  S
C3265      H3275   1.082       .  S
N3266      C3267   1.361   1_455  A
N3266      N3289   1.426       .  S
C3267      H3273   1.080       .  S
C3268      H3270   1.073       .  S
N3269      C3271   1.359   1_455  A
N3269      C3381   1.444       .  S
C3271      H3272   1.084       .  S
C3276      C3278   1.546       .  S
C3276      C3280   1.547       .  S
C3276      C3279   1.549       .  S
C3276      C3299   1.545       .  S
C3277      C3281   1.535       .  S
C3277      C3283   1.537       .  S
C3277      C3282   1.548       .  S
C3277      C3300   1.550       .  S
C3278      C3286   1.388       .  A
C3279      C3290   1.387       .  A
C3280      C3294   1.388       .  A
C3281      C3284   1.373       .  A
C3282      C3288   1.390       .  A
C3283      C3291   1.374       .  A
C3284      H3297   1.079       .  S
C3284      N3285   1.354       .  A
N3285      C3365   1.444       .  S
C3286      H3287   1.083       .  S
C3288      H3298   1.082       .  S
C3288      N3289   1.368   1_655  A
C3290      H3296   1.081       .  S
C3291      H3293   1.082       .  S
C3291      N3292   1.354       .  A
N3292      C3349   1.451       .  S
C3294      H3295   1.082       .  S
C3299      C3301   1.536       .  S
C3299      C3303   1.536       .  S
C3299      C3302   1.549       .  S
C3300      C3304   1.554       .  S
C3300      C3306   1.550       .  S
C3300      C3305   1.551       .  S
C3301      C3309   1.377       .  A
C3301      C3304   1.389       .  A
C3302      C3313   1.391       .  A
C3302      C3305   1.389       .  A
C3303      C3317   1.375       .  A
C3303      C3306   1.388       .  A
C3304      C3307   1.392       .  A
C3305      C3311   1.388       .  A
C3306      C3314   1.390       .  A
C3307      H3320   1.081       .  S
C3307      N3308   1.365       .  A
N3308      C3309   1.352       .  A
N3308      C3429   1.447       .  S
C3309      H3310   1.082       .  S
C3311      H3321   1.080       .  S
C3311      N3312   1.361       .  A
N3312      C3313   1.368       .  A
N3312      N3831   1.426       .  S
C3313      H3319   1.081       .  S
C3314      H3316   1.081       .  S
C3314      N3315   1.365       .  A
N3315      C3317   1.354       .  A
N3315      C3413   1.448       .  S
C3317      H3318   1.082       .  S
C3322      C3324   1.557       .  S
C3322      C3326   1.548       .  S
C3322      C3325   1.550       .  S
C3323      C3327   1.543       .  S
C3323      C3329   1.534       .  S
C3323      C3328   1.549       .  S
C3324      C3332   1.393       .  A
C3324      C3327   1.391       .  A
C3325      C3336   1.388       .  A
C3325      C3328   1.389       .  A
C3326      C3340   1.389       .  A
C3326      C3329   1.386       .  A
C3327      C3330   1.382       .  A
C3328      C3334   1.391       .  A
C3329      C3337   1.375       .  A
C3330      H3343   1.083       .  S
C3330      N3331   1.354       .  A
N3331      C3332   1.366       .  A
N3331      C3445   1.452       .  S
C3332      H3333   1.082       .  S
C3334      H3344   1.080       .  S
C3334      N3335   1.368       .  A
N3335      C3336   1.360       .  A
N3335      N3808   1.425   1_545  S
C3336      H3342   1.081       .  S
C3337      H3339   1.080       .  S
C3337      N3338   1.353       .  A
N3338      C3340   1.364       .  A
N3338      C3458   1.446       .  S
C3340      H3341   1.083       .  S
C3345      C3350   1.407       .  A
C3345      H3352   1.084       .  S
C3346      C3347   1.424       .  A
C3347      C3354   1.507       .  S
C3347      C3348   1.412       .  A
C3348      C3349   1.404       .  A
C3348      H3353   1.084       .  S
C3350      C3351   1.496       .  S
C3351      H3355   1.108       .  S
C3351      H3356   1.104       .  S
C3351      H3357   1.111       .  S
C3354      H3358   1.106       .  S
C3354      H3359   1.110       .  S
C3354      H3360   1.111       .  S
C3361      C3362   1.410       .  A
C3361      C3366   1.408       .  A
C3361      H3368   1.085       .  S
C3363      C3370   1.505       .  S
C3363      C3364   1.411       .  A
C3364      H3369   1.084       .  S
C3365      C3366   1.412       .  A
C3366      C3367   1.507       .  S
C3367      H3371   1.111       .  S
C3367      H3372   1.109       .  S
C3367      H3373   1.108       .  S
C3370      H3374   1.109       .  S
C3370      H3375   1.111       .  S
C3370      H3376   1.108       .  S
C3377      C3382   1.406       .  A
C3377      H3384   1.085       .  S
C3378      C3379   1.415   1_455  A
C3379      C3386   1.503       .  S
C3379      C3380   1.409       .  A
C3380      C3381   1.405   1_655  A
C3380      H3385   1.084       .  S
C3382      C3383   1.507       .  S
C3383      H3387   1.111   1_545  S
C3383      H3388   1.108       .  S
C3383      H3389   1.109   1_545  S
C3386      H3390   1.110       .  S
C3386      H3391   1.109       .  S
C3386      H3392   1.107       .  S
C3393      C3394   1.403   1_655  A
C3393      C3398   1.407       .  A
C3393      H3400   1.084       .  S
C3395      C3402   1.507       .  S
C3395      C3396   1.413       .  A
C3396      H3401   1.082       .  S
C3397      C3398   1.414   1_455  A
C3398      C3399   1.497       .  S
C3399      H3403   1.108       .  S
C3399      H3404   1.110       .  S
C3399      H3405   1.104       .  S
C3402      H3406   1.110       .  S
C3402      H3407   1.106   1_545  S
C3402      H3408   1.111   1_545  S
C3409      C3410   1.402       .  A
C3409      C3414   1.404       .  A
C3409      H3416   1.083       .  S
C3410      C3411   1.424       .  A
C3411      C3418   1.504       .  S
C3411      C3412   1.411       .  A
C3412      C3413   1.403       .  A
C3412      H3417   1.083       .  S
C3413      C3414   1.414       .  A
C3414      C3415   1.495       .  S
C3415      H3419   1.108       .  S
C3415      H3420   1.110       .  S
C3415      H3421   1.106       .  S
C3418      H3422   1.107       .  S
C3418      H3423   1.106       .  S
C3418      H3424   1.111       .  S
C3425      C3426   1.403       .  A
C3425      C3430   1.407       .  A
C3425      H3432   1.084       .  S
C3426      C3427   1.424       .  A
C3427      C3434   1.504       .  S
C3427      C3428   1.409       .  A
C3428      C3429   1.400       .  A
C3428      H3433   1.083       .  S
C3429      C3430   1.413       .  A
C3430      C3431   1.494       .  S
C3431      H3435   1.103       .  S
C3431      H3436   1.111       .  S
C3431      H3437   1.109       .  S
C3434      H3438   1.104       .  S
C3434      H3439   1.108       .  S
C3434      H3440   1.111       .  S
C3441      C3442   1.404       .  A
C3441      C3446   1.409       .  A
C3441      H3448   1.083       .  S
C3442      C3443   1.425       .  A
C3443      C3450   1.506       .  S
C3443      C3444   1.413       .  A
C3444      C3445   1.402       .  A
C3444      H3449   1.082       .  S
C3445      C3446   1.414       .  A
C3446      C3447   1.495       .  S
C3447      H3451   1.109       .  S
C3447      H3452   1.111       .  S
C3447      H3453   1.102       .  S
C3450      H3454   1.109       .  S
C3450      H3455   1.105       .  S
C3450      H3456   1.111       .  S
C3457      C3458   1.402       .  A
C3457      C3462   1.410       .  A
C3457      H3464   1.085       .  S
C3458      C3459   1.413       .  A
C3459      C3466   1.493       .  S
C3459      C3460   1.403       .  A
C3460      C3461   1.401       .  A
C3460      H3465   1.085       .  S
C3461      C3462   1.425       .  A
C3462      C3463   1.506       .  S
C3463      H3467   1.111       .  S
C3463      H3468   1.106       .  S
C3463      H3469   1.109       .  S
C3466      H3470   1.104       .  S
C3466      H3471   1.111       .  S
C3466      H3472   1.108       .  S
O3473      C3483   1.279       .  A
O3473     Cu3729   2.008       .  S
O3474      C3484   1.279       .  A
O3474     Cu3481   2.022       .  S
O3475      C3485   1.279       .  A
O3475     Cu3729   2.022       .  S
O3476      C3486   1.280       .  A
O3476     Cu3481   2.012       .  S
O3477      C3486   1.280       .  A
O3477     Cu3730   2.028       .  S
O3478      C3485   1.279       .  A
O3478     Cu3482   2.005       .  S
O3479      C3484   1.278       .  A
O3479     Cu3730   2.007       .  S
O3480      C3483   1.279       .  A
O3480     Cu3482   2.022       .  S
Cu3481     O3721   2.014   1_554  S
Cu3481     O3723   2.020   1_554  S
Cu3481    Cu3730   2.361       .  S
Cu3482     O3725   2.017       .  S
Cu3482     O3727   2.009       .  S
Cu3482    Cu3729   2.362       .  S
C3483      C3690   1.496       .  S
C3484      C3674   1.494       .  S
C3485      C3658   1.496       .  S
C3486      C3709   1.500       .  S
O3487     Cu3743   2.014       .  S
O3490     Cu3495   2.014   1_554  S
O3491      C3500   1.281   1_655  A
O3491     Cu3496   2.017   1_554  S
O3492      C3499   1.279       .  A
O3493      C3498   1.281       .  A
O3494      C3497   1.279   1_655  A
O3494     Cu3744   2.016       .  S
Cu3495     O3735   2.015       .  S
Cu3496     O3742   2.016       .  S
C3497      C3626   1.495       .  S
C3498      C3610   1.493       .  S
C3499      C3594   1.495       .  S
C3500      C3642   1.495       .  S
C3501      C3503   1.546       .  S
C3501      C3505   1.542       .  S
C3501      C3504   1.550       .  S
C3501      C3571   1.547       .  S
C3502      C3506   1.540       .  S
C3502      C3508   1.537       .  S
C3502      C3507   1.550       .  S
C3502      C3570   1.550       .  S
C3503      C3511   1.387       .  A
C3504      C3515   1.387       .  A
C3505      C3519   1.385       .  A
C3506      C3509   1.376       .  A
C3507      C3513   1.391       .  A
C3508      C3516   1.374       .  A
C3509      H3522   1.077       .  S
N3510      C3511   1.363   1_455  A
N3510      C3645   1.449       .  S
C3511      H3512   1.081       .  S
C3513      H3523   1.081       .  S
N3514      C3515   1.360   1_455  A
N3514      N3537   1.426       .  S
C3515      H3521   1.080       .  S
C3516      H3518   1.080       .  S
N3517      C3519   1.360   1_455  A
N3517      C3629   1.447       .  S
C3519      H3520   1.082       .  S
C3524      C3526   1.548       .  S
C3524      C3528   1.548       .  S
C3524      C3527   1.549       .  S
C3524      C3547   1.547       .  S
C3525      C3529   1.539       .  S
C3525      C3531   1.537       .  S
C3525      C3530   1.550       .  S
C3525      C3548   1.550       .  S
C3526      C3534   1.390       .  A
C3527      C3538   1.387       .  A
C3528      C3542   1.390       .  A
C3529      C3532   1.375       .  A
C3530      C3536   1.391       .  A
C3531      C3539   1.374       .  A
C3532      H3545   1.081       .  S
C3532      N3533   1.355       .  A
N3533      C3613   1.445       .  S
C3534      H3535   1.081       .  S
C3536      H3546   1.082       .  S
C3536      N3537   1.369   1_655  A
C3538      H3544   1.081       .  S
C3539      H3541   1.077       .  S
C3539      N3540   1.354       .  A
N3540      C3597   1.447       .  S
C3542      H3543   1.082       .  S
C3547      C3549   1.538       .  S
C3547      C3551   1.537       .  S
C3547      C3550   1.549       .  S
C3548      C3552   1.552       .  S
C3548      C3554   1.552       .  S
C3548      C3553   1.548       .  S
C3549      C3557   1.377       .  A
C3549      C3552   1.389       .  A
C3550      C3561   1.391       .  A
C3550      C3553   1.389       .  A
C3551      C3565   1.376       .  A
C3551      C3554   1.389       .  A
C3552      C3555   1.392       .  A
C3553      C3559   1.386       .  A
C3554      C3562   1.392       .  A
C3555      H3568   1.080       .  S
C3555      N3556   1.365       .  A
N3556      C3557   1.351       .  A
N3556      C3677   1.446       .  S
C3557      H3558   1.083       .  S
C3559      H3569   1.081       .  S
C3559      N3560   1.358       .  A
N3560      C3561   1.369       .  A
C3561      H3567   1.081       .  S
C3562      H3564   1.080       .  S
C3562      N3563   1.366       .  A
N3563      C3565   1.354       .  A
N3563      C3661   1.449       .  S
C3565      H3566   1.080       .  S
C3570      C3572   1.552       .  S
C3570      C3574   1.547       .  S
C3570      C3573   1.548       .  S
C3571      C3575   1.541       .  S
C3571      C3577   1.540       .  S
C3571      C3576   1.551       .  S
C3572      C3580   1.391       .  A
C3572      C3575   1.391       .  A
C3573      C3584   1.386       .  A
C3573      C3576   1.389       .  A
C3574      C3588   1.390       .  A
C3574      C3577   1.386       .  A
C3575      C3578   1.381       .  A
C3576      C3582   1.392       .  A
C3577      C3585   1.379       .  A
C3578      H3591   1.080       .  S
C3578      N3579   1.355       .  A
N3579      C3580   1.365       .  A
N3579      C3693   1.449       .  S
C3580      H3581   1.081       .  S
C3582      H3592   1.082       .  S
C3582      N3583   1.370       .  A
N3583      C3584   1.359       .  A
C3584      H3590   1.081       .  S
C3585      H3587   1.081       .  S
C3585      N3586   1.356       .  A
N3586      C3588   1.364       .  A
N3586      C3706   1.451       .  S
C3588      H3589   1.081       .  S
C3593      C3598   1.407       .  A
C3593      H3600   1.084       .  S
C3594      C3595   1.425       .  A
C3595      C3602   1.507       .  S
C3595      C3596   1.411       .  A
C3596      C3597   1.402       .  A
C3596      H3601   1.084       .  S
C3598      C3599   1.496       .  S
C3599      H3603   1.108       .  S
C3599      H3604   1.104       .  S
C3599      H3605   1.111       .  S
C3602      H3606   1.104   1_565  S
C3602      H3607   1.110       .  S
C3602      H3608   1.111   1_565  S
C3609      C3610   1.411       .  A
C3609      C3614   1.409       .  A
C3609      H3616   1.084       .  S
C3611      C3618   1.502       .  S
C3611      C3612   1.412       .  A
C3612      H3617   1.084       .  S
C3613      C3614   1.413       .  A
C3614      C3615   1.507       .  S
C3615      H3619   1.111   1_565  S
C3615      H3620   1.109   1_565  S
C3615      H3621   1.109       .  S
C3618      H3622   1.109       .  S
C3618      H3623   1.110       .  S
C3618      H3624   1.106       .  S
C3625      C3630   1.406       .  A
C3625      H3632   1.085       .  S
C3626      C3627   1.415   1_455  A
C3627      C3634   1.504       .  S
C3627      C3628   1.410       .  A
C3628      C3629   1.406   1_655  A
C3628      H3633   1.084       .  S
C3630      C3631   1.507       .  S
C3631      H3635   1.111       .  S
C3631      H3636   1.108       .  S
C3631      H3637   1.110       .  S
C3634      H3638   1.110       .  S
C3634      H3639   1.109       .  S
C3634      H3640   1.108       .  S
C3641      C3642   1.401   1_655  A
C3641      C3646   1.406       .  A
C3641      H3648   1.084       .  S
C3643      C3650   1.508       .  S
C3643      C3644   1.409       .  A
C3644      H3649   1.084       .  S
C3645      C3646   1.415   1_455  A
C3646      C3647   1.494       .  S
C3647      H3651   1.108       .  S
C3647      H3652   1.111       .  S
C3647      H3653   1.103       .  S
C3650      H3654   1.110       .  S
C3650      H3655   1.106       .  S
C3650      H3656   1.111       .  S
C3657      C3658   1.402       .  A
C3657      C3662   1.406       .  A
C3657      H3664   1.083       .  S
C3658      C3659   1.424       .  A
C3659      C3666   1.504       .  S
C3659      C3660   1.411       .  A
C3660      C3661   1.402       .  A
C3660      H3665   1.083       .  S
C3661      C3662   1.414       .  A
C3662      C3663   1.494       .  S
C3663      H3667   1.108       .  S
C3663      H3668   1.110       .  S
C3663      H3669   1.104       .  S
C3666      H3670   1.108       .  S
C3666      H3671   1.106       .  S
C3666      H3672   1.111       .  S
C3673      C3674   1.404       .  A
C3673      C3678   1.407       .  A
C3673      H3680   1.085       .  S
C3674      C3675   1.424       .  A
C3675      C3682   1.504       .  S
C3675      C3676   1.408       .  A
C3676      C3677   1.399       .  A
C3676      H3681   1.084       .  S
C3677      C3678   1.413       .  A
C3678      C3679   1.495       .  S
C3679      H3683   1.103       .  S
C3679      H3684   1.111       .  S
C3679      H3685   1.110       .  S
C3682      H3686   1.104       .  S
C3682      H3687   1.108       .  S
C3682      H3688   1.111       .  S
C3689      C3690   1.403       .  A
C3689      C3694   1.407       .  A
C3689      H3696   1.085       .  S
C3690      C3691   1.424       .  A
C3691      C3698   1.506       .  S
C3691      C3692   1.410       .  A
C3692      C3693   1.401       .  A
C3692      H3697   1.084       .  S
C3693      C3694   1.414       .  A
C3694      C3695   1.495       .  S
C3695      H3699   1.109       .  S
C3695      H3700   1.111       .  S
C3695      H3701   1.103       .  S
C3698      H3702   1.109       .  S
C3698      H3703   1.106       .  S
C3698      H3704   1.111       .  S
C3705      C3706   1.403       .  A
C3705      C3710   1.414       .  A
C3705      H3712   1.084       .  S
C3706      C3707   1.414       .  A
C3707      C3714   1.494       .  S
C3707      C3708   1.405       .  A
C3708      C3709   1.402       .  A
C3708      H3713   1.084       .  S
C3709      C3710   1.426       .  A
C3710      C3711   1.505       .  S
C3711      H3715   1.112       .  S
C3711      H3716   1.105       .  S
C3711      H3717   1.107       .  S
C3714      H3718   1.104       .  S
C3714      H3719   1.111       .  S
C3714      H3720   1.109       .  S
O3721      C3731   1.279       .  A
O3722      C3732   1.279       .  A
O3722     Cu3729   2.021       .  S
O3723      C3733   1.279       .  A
O3724      C3734   1.280       .  A
O3724     Cu3729   2.007       .  S
O3725      C3734   1.278       .  A
O3726      C3733   1.279       .  A
O3726     Cu3730   2.003   1_556  S
O3727      C3732   1.279       .  A
O3728      C3731   1.281       .  A
O3728     Cu3730   2.032   1_556  S
C3731      C3938   1.503       .  S
C3732      C3922   1.495       .  S
C3733      C3906   1.494       .  S
C3734      C3957   1.494       .  S
O3738     Cu3743   2.024       .  S
O3739      C3748   1.280   1_655  A
O3739     Cu3744   2.013       .  S
O3740      C3747   1.280       .  A
O3741      C3746   1.281       .  A
O3742      C3745   1.279   1_655  A
C3745      C3874   1.491       .  S
C3746      C3858   1.493       .  S
C3747      C3842   1.496       .  S
C3748      C3890   1.498       .  S
C3749      C3751   1.549       .  S
C3749      C3753   1.538       .  S
C3749      C3752   1.549       .  S
C3749      C3819   1.544       .  S
C3750      C3754   1.541       .  S
C3750      C3756   1.532       .  S
C3750      C3755   1.549       .  S
C3750      C3818   1.551       .  S
C3751      C3759   1.388       .  A
C3752      C3763   1.386       .  A
C3753      C3767   1.383       .  A
C3754      C3757   1.377       .  A
C3755      C3761   1.390       .  A
C3756      C3764   1.371       .  A
C3757      H3770   1.082       .  S
N3758      C3759   1.365   1_455  A
N3758      C3893   1.451       .  S
C3759      H3760   1.082       .  S
C3761      H3771   1.080       .  S
N3762      C3763   1.360   1_455  A
N3762      N3785   1.425       .  S
C3763      H3769   1.080       .  S
C3764      H3766   1.078       .  S
N3765      C3767   1.358   1_455  A
N3765      C3877   1.442       .  S
C3767      H3768   1.082       .  S
C3772      C3774   1.544       .  S
C3772      C3776   1.546       .  S
C3772      C3775   1.547       .  S
C3772      C3795   1.544       .  S
C3773      C3777   1.536       .  S
C3773      C3779   1.536       .  S
C3773      C3778   1.547       .  S
C3773      C3796   1.549       .  S
C3774      C3782   1.387       .  A
C3775      C3786   1.386       .  A
C3776      C3790   1.388       .  A
C3777      C3780   1.374       .  A
C3778      C3784   1.389       .  A
C3779      C3787   1.374       .  A
C3780      H3793   1.078       .  S
C3780      N3781   1.354       .  A
N3781      C3861   1.445       .  S
C3782      H3783   1.083       .  S
C3784      H3794   1.081       .  S
C3784      N3785   1.368   1_655  A
C3786      H3792   1.080       .  S
C3787      H3789   1.079       .  S
C3787      N3788   1.354       .  A
N3788      C3845   1.449       .  S
C3790      H3791   1.083       .  S
C3795      C3797   1.537       .  S
C3795      C3799   1.536       .  S
C3795      C3798   1.548       .  S
C3796      C3800   1.552       .  S
C3796      C3802   1.550       .  S
C3796      C3801   1.550       .  S
C3797      C3805   1.377       .  A
C3797      C3800   1.389       .  A
C3798      C3809   1.391       .  A
C3798      C3801   1.388       .  A
C3799      C3813   1.375       .  A
C3799      C3802   1.388       .  A
C3800      C3803   1.391       .  A
C3801      C3807   1.387       .  A
C3802      C3810   1.390       .  A
C3803      H3816   1.081       .  S
C3803      N3804   1.365       .  A
N3804      C3805   1.352       .  A
N3804      C3925   1.446       .  S
C3805      H3806   1.083       .  S
C3807      H3817   1.080       .  S
C3807      N3808   1.360       .  A
N3808      C3809   1.368       .  A
C3809      H3815   1.082       .  S
C3810      H3812   1.082       .  S
C3810      N3811   1.365       .  A
N3811      C3813   1.354       .  A
N3811      C3909   1.447       .  S
C3813      H3814   1.079       .  S
C3818      C3820   1.559       .  S
C3818      C3822   1.548       .  S
C3818      C3821   1.551       .  S
C3819      C3823   1.544       .  S
C3819      C3825   1.534       .  S
C3819      C3824   1.549       .  S
C3820      C3828   1.395       .  A
C3820      C3823   1.391       .  A
C3821      C3832   1.388       .  A
C3821      C3824   1.388       .  A
C3822      C3836   1.390       .  A
C3822      C3825   1.385       .  A
C3823      C3826   1.383       .  A
C3824      C3830   1.391       .  A
C3825      C3833   1.376       .  A
C3826      H3839   1.083       .  S
C3826      N3827   1.355       .  A
N3827      C3828   1.367       .  A
N3827      C3941   1.454       .  S
C3828      H3829   1.082       .  S
C3830      H3840   1.080       .  S
C3830      N3831   1.368       .  A
N3831      C3832   1.361       .  A
C3832      H3838   1.080       .  S
C3833      H3835   1.080       .  S
C3833      N3834   1.353       .  A
N3834      C3836   1.364       .  A
N3834      C3954   1.447       .  S
C3836      H3837   1.083       .  S
C3841      C3846   1.407       .  A
C3841      H3848   1.085       .  S
C3842      C3843   1.424       .  A
C3843      C3850   1.507       .  S
C3843      C3844   1.412       .  A
C3844      C3845   1.403       .  A
C3844      H3849   1.084       .  S
C3846      C3847   1.496       .  S
C3847      H3851   1.108       .  S
C3847      H3852   1.104       .  S
C3847      H3853   1.110       .  S
C3850      H3854   1.105   1_565  S
C3850      H3855   1.110       .  S
C3850      H3856   1.111   1_565  S
C3857      C3858   1.410       .  A
C3857      C3862   1.408       .  A
C3857      H3864   1.084       .  S
C3859      C3866   1.504       .  S
C3859      C3860   1.411       .  A
C3860      H3865   1.084       .  S
C3861      C3862   1.412       .  A
C3862      C3863   1.507       .  S
C3863      H3867   1.111   1_565  S
C3863      H3868   1.109   1_565  S
C3863      H3869   1.108       .  S
C3866      H3870   1.109       .  S
C3866      H3871   1.110       .  S
C3866      H3872   1.107       .  S
C3873      C3878   1.404       .  A
C3873      H3880   1.085       .  S
C3874      C3875   1.413   1_455  A
C3875      C3882   1.502       .  S
C3875      C3876   1.409       .  A
C3876      C3877   1.405   1_655  A
C3876      H3881   1.084       .  S
C3878      C3879   1.507       .  S
C3879      H3883   1.111       .  S
C3879      H3884   1.108       .  S
C3879      H3885   1.109       .  S
C3882      H3886   1.110   1_655  S
C3882      H3887   1.109       .  S
C3882      H3888   1.107       .  S
C3889      C3890   1.402   1_655  A
C3889      C3894   1.406       .  A
C3889      H3896   1.085       .  S
C3891      C3898   1.507       .  S
C3891      C3892   1.413       .  A
C3892      H3897   1.082       .  S
C3893      C3894   1.414   1_455  A
C3894      C3895   1.496       .  S
C3895      H3899   1.108       .  S
C3895      H3900   1.110       .  S
C3895      H3901   1.104       .  S
C3898      H3902   1.110       .  S
C3898      H3903   1.106       .  S
C3898      H3904   1.111       .  S
C3905      C3906   1.402       .  A
C3905      C3910   1.404       .  A
C3905      H3912   1.084       .  S
C3906      C3907   1.425       .  A
C3907      C3914   1.505       .  S
C3907      C3908   1.411       .  A
C3908      C3909   1.402       .  A
C3908      H3913   1.084       .  S
C3909      C3910   1.413       .  A
C3910      C3911   1.495       .  S
C3911      H3915   1.108       .  S
C3911      H3916   1.110       .  S
C3911      H3917   1.105       .  S
C3914      H3918   1.107       .  S
C3914      H3919   1.105       .  S
C3914      H3920   1.111       .  S
C3921      C3922   1.402       .  A
C3921      C3926   1.406       .  A
C3921      H3928   1.085       .  S
C3922      C3923   1.425       .  A
C3923      C3930   1.504       .  S
C3923      C3924   1.409       .  A
C3924      C3925   1.400       .  A
C3924      H3929   1.084       .  S
C3925      C3926   1.412       .  A
C3926      C3927   1.494       .  S
C3927      H3931   1.103       .  S
C3927      H3932   1.111       .  S
C3927      H3933   1.109       .  S
C3930      H3934   1.104       .  S
C3930      H3935   1.108       .  S
C3930      H3936   1.111       .  S
C3937      C3938   1.405       .  A
C3937      C3942   1.410       .  A
C3937      H3944   1.085       .  S
C3938      C3939   1.426       .  A
C3939      C3946   1.505       .  S
C3939      C3940   1.413       .  A
C3940      C3941   1.402       .  A
C3940      H3945   1.084       .  S
C3941      C3942   1.415       .  A
C3942      C3943   1.496       .  S
C3943      H3947   1.110       .  S
C3943      H3948   1.111       .  S
C3943      H3949   1.102       .  S
C3946      H3950   1.108       .  S
C3946      H3951   1.104       .  S
C3946      H3952   1.111       .  S
C3953      C3954   1.402       .  A
C3953      C3958   1.410       .  A
C3953      H3960   1.085       .  S
C3954      C3955   1.413       .  A
C3955      C3962   1.493       .  S
C3955      C3956   1.404       .  A
C3956      C3957   1.401       .  A
C3956      H3961   1.085       .  S
C3957      C3958   1.425       .  A
C3958      C3959   1.506       .  S
C3959      H3963   1.111       .  S
C3959      H3964   1.106       .  S
C3959      H3965   1.108       .  S
C3962      H3966   1.104       .  S
C3962      H3967   1.111       .  S
C3962      H3968   1.108       .  S
