geometry optimzed in LAMMPS
_audit_creation_date              2020-11-30 
_audit_creation_method            'lammps2cif' 
_symmetry_space_group_name_H-M    'P1' 
_symmetry_Int_Tables_number       1 
_symmetry_cell_setting            triclinic 
loop_ 
_symmetry_equiv_pos_as_xyz 
  x,y,z 
_cell_length_a                    58.81739695 
_cell_length_b                    58.90290176023503 
_cell_length_c                    58.78329607306427 
_cell_angle_alpha                 89.91624279403422 
_cell_angle_beta                  90.02437529777092 
_cell_angle_gamma                 90.38999596501945 
loop_ 
_atom_site_label 
_atom_site_type_symbol 
_atom_site_fract_x 
_atom_site_fract_y 
_atom_site_fract_z 
_atom_site_charge 
C1          C  0.53774390  0.90776981  0.73060368     0.81100
N2          N  0.51600706  0.90106119  0.72625406    -0.77200
C3          C  0.51128031  0.87914845  0.72098615     0.83600
N4          N  0.52844522  0.86405510  0.71981203    -0.77100
C5          C  0.55029805  0.87027766  0.72409715     0.83700
N6          N  0.55488696  0.89232642  0.72954363    -0.78800
C7          C  0.53930989  0.07597016  0.75795294     0.81100
N8          N  0.51789175  0.08370665  0.76149019    -0.77200
C9          C  0.51381084  0.10608828  0.76470687     0.83600
N10         N  0.53155230  0.12092638  0.76475850    -0.77100
C11         C  0.55318620  0.11361371  0.76139228     0.83700
N12         N  0.55696019  0.09106413  0.75799315    -0.78800
C13         C  0.89848133  0.72116580  0.55869914     0.81100
N14         N  0.88242506  0.72085771  0.57549796    -0.77200
C15         C  0.86014878  0.71644046  0.57048208     0.83600
N16         N  0.85426423  0.71218125  0.54853502    -0.77100
C17         C  0.86997227  0.71211623  0.53172742     0.83700
N18         N  0.89191582  0.71682888  0.53692927    -0.78800
C19         C  0.06790314  0.74793061  0.56780462     0.81100
N20         N  0.08227992  0.74575099  0.58577760    -0.77200
C21         C  0.10511489  0.74844559  0.58289428     0.83600
N22         N  0.11346383  0.75399402  0.56196378    -0.77100
C23         C  0.09920107  0.75653437  0.54392865     0.83700
N24         N  0.07654898  0.75343655  0.54711664    -0.78800
C25         C  0.55847325  0.70235950  0.44217526     0.81100
N26         N  0.57376003  0.70308033  0.42467960    -0.77200
C27         C  0.59652302  0.70217896  0.42912114     0.83600
N28         N  0.60368795  0.70055164  0.45100840    -0.77100
C29         C  0.58881826  0.69981932  0.46854362     0.83700
N30         N  0.56625352  0.70099446  0.46393778    -0.78800
C31         C  0.39150462  0.73694517  0.44649374     0.81100
N32         N  0.38431305  0.74121108  0.46808650    -0.77200
C33         C  0.36187958  0.74387936  0.47287181     0.83600
N34         N  0.34662351  0.74213706  0.45559928    -0.77100
C35         C  0.35326293  0.73742158  0.43400244     0.83700
N36         N  0.37583284  0.73492604  0.42950709    -0.78800
C37         C  0.68431307  0.54974954  0.92394325     0.81100
N38         N  0.68043642  0.52846047  0.91590934    -0.77200
C39         C  0.67649963  0.52478902  0.89353255     0.83600
N40         N  0.67703785  0.54260576  0.87900374    -0.77100
C41         C  0.68104688  0.56406033  0.88649074     0.83700
N42         N  0.68470060  0.56762734  0.90914469    -0.78800
C43         C  0.72205286  0.54199299  0.09042567     0.81100
N44         N  0.72483895  0.55919350  0.10566317    -0.77200
C45         C  0.73324043  0.55487422  0.12678496     0.83600
N46         N  0.73913051  0.53333189  0.13228720    -0.77100
C47         C  0.73678474  0.51605277  0.11729930     0.83700
N48         N  0.72807145  0.52049761  0.09638496    -0.78800
Zn49       Zn  0.65308080  0.32928649  0.80066182     1.49700
Zn50       Zn  0.68496893  0.28490543  0.79965490     1.49400
Zn51       Zn  0.67861603  0.31385913  0.84547215     1.49100
Zn52       Zn  0.63649615  0.28524338  0.82657216     1.49500
O53         O  0.66342990  0.30308551  0.81798411    -1.83200
O54         O  0.66817017  0.33026826  0.77032325    -0.73900
O55         O  0.71520787  0.28023204  0.81688684    -0.73700
O56         O  0.67875170  0.34797067  0.84755368    -0.73200
O57         O  0.69164566  0.30085423  0.76933290    -0.73900
O58         O  0.65969541  0.35858026  0.81694469    -0.73500
O59         O  0.71072545  0.30280074  0.84680924    -0.74100
O60         O  0.63389441  0.28169855  0.86074422    -0.73400
O61         O  0.67041173  0.25416261  0.79210911    -0.74200
O62         O  0.66295207  0.30220198  0.87361579    -0.73600
O63         O  0.63837723  0.25451617  0.81225188    -0.74100
O64         O  0.60711680  0.29898700  0.81470910    -0.74000
O65         O  0.61954314  0.32852607  0.79487423    -0.73800
C66         C  0.68302528  0.31844547  0.76012269     0.78000
C67         C  0.72286409  0.28934008  0.83511389     0.78500
C68         C  0.67014442  0.36350431  0.83523927     0.77500
C69         C  0.64552286  0.28978791  0.87718295     0.77900
C70         C  0.65190461  0.24471603  0.79855724     0.79000
C71         C  0.60335471  0.31582400  0.80163357     0.78000
Zn72       Zn  0.27563297  0.80300739  0.66537369     1.49700
Zn73       Zn  0.30243070  0.82461295  0.70662136     1.49400
Zn74       Zn  0.27561431  0.77748306  0.71478302     1.49100
Zn75       Zn  0.32066788  0.77983026  0.68270510     1.49500
O76         O  0.29341254  0.79596143  0.69257626    -1.83200
O77         O  0.27161548  0.83661546  0.66080160    -0.73900
O78         O  0.29181815  0.82635954  0.73883893    -0.73700
O79         O  0.24380328  0.77061262  0.70149879    -0.73200
O80         O  0.28948005  0.85161044  0.69027560    -0.73900
O81         O  0.24475355  0.78954331  0.66862834    -0.73500
O82         O  0.27189799  0.79481413  0.74518326    -0.74100
O83         O  0.32193243  0.74942628  0.69792482    -0.73400
O84         O  0.33619317  0.82879346  0.70608542    -0.74200
O85         O  0.29197792  0.74726648  0.72104452    -0.73600
O86         O  0.34934778  0.79762254  0.68974495    -0.74100
O87         O  0.32120929  0.77452695  0.64879498    -0.74000
O88         O  0.28971828  0.79084366  0.63647510    -0.73800
C89         C  0.27790242  0.85390695  0.67214196     0.78000
C90         C  0.27961681  0.81404420  0.75186245     0.78500
C91         C  0.23429636  0.77727132  0.68310785     0.77500
C92         C  0.30999155  0.73870505  0.71253930     0.77900
C93         C  0.35264564  0.81711904  0.69854438     0.79000
C94         C  0.30805170  0.78017405  0.63258166     0.78000
C95         C  0.03409819  0.56862754  0.26061782     0.81100
N96         N  0.01281789  0.57741272  0.26172556    -0.77200
C97         C  0.00924418  0.60008740  0.26334690     0.83600
N98         N  0.02753941  0.61420691  0.26379554    -0.77100
C99         C  0.04902270  0.60592073  0.26283691     0.83700
N100        N  0.05226974  0.58308752  0.26132989    -0.78800
C101        C  0.03668998  0.39827311  0.24061179     0.81100
N102        N  0.05448144  0.38361852  0.24019684    -0.77200
C103        C  0.05073780  0.36121272  0.23569852     0.83600
N104        N  0.02932808  0.35384009  0.23081164    -0.77100
C105        C  0.01157154  0.36842747  0.23071818     0.83700
N106        N  0.01539420  0.39052435  0.23601233    -0.78800
Zn107      Zn  0.78700381  0.70305269  0.32971695     1.49700
Zn108      Zn  0.81359071  0.65563172  0.33129809     1.49400
Zn109      Zn  0.76442877  0.65825101  0.30911475     1.49100
Zn110      Zn  0.80663873  0.68111956  0.28353835     1.49500
O111        O  0.79298640  0.67463425  0.31341877    -1.83200
O112        O  0.80319947  0.70316658  0.36009804    -0.73900
O113        O  0.79943339  0.62519858  0.33893924    -0.73700
O114        O  0.73810654  0.67516764  0.32251022    -0.73200
O115        O  0.82219177  0.67080942  0.36077942    -0.73900
O116        O  0.75317715  0.70673142  0.33650444    -0.73500
O117        O  0.76522274  0.62716805  0.32341458    -0.74100
O118        O  0.78707141  0.66912325  0.25774913    -0.73400
O119        O  0.84229337  0.64938181  0.31393495    -0.74200
O120        O  0.75830108  0.65305543  0.27609783    -0.73600
O121        O  0.83753968  0.66626315  0.28060757    -0.74100
O122        O  0.81163237  0.71482678  0.27955180    -0.74000
O123        O  0.79905529  0.72999197  0.31162312    -0.73800
C124        C  0.81653638  0.68944523  0.37010244     0.78000
C125        C  0.78023478  0.61619186  0.33440398     0.78500
C126        C  0.73593766  0.69398199  0.33291634     0.77500
C127        C  0.76847205  0.65787752  0.25762344     0.77900
C128        C  0.84952247  0.65435814  0.29411019     0.79000
C129        C  0.80840326  0.73211364  0.29215585     0.78000
C130        C  0.89330692  0.24709012  0.94752093     0.81100
N131        N  0.88644622  0.25061242  0.96937941    -0.77200
C132        C  0.86426584  0.25461048  0.97422890     0.83600
N133        N  0.84890943  0.25496330  0.95711314    -0.77100
C134        C  0.85511834  0.25128793  0.93521855     0.83700
N135        N  0.87748975  0.24737080  0.93042707    -0.78800
C136        C  0.05829962  0.20581702  0.94416098     0.81100
N137        N  0.07463578  0.20858423  0.92791076    -0.77200
C138        C  0.09706866  0.20730943  0.93361300     0.83600
N139        N  0.10291068  0.20318251  0.95557812    -0.77100
C140        C  0.08687985  0.20028388  0.97191977     0.83700
N141        N  0.06460901  0.20186145  0.96607483    -0.78800
Zn142      Zn  0.81678959  0.28273364  0.18345169     1.49700
Zn143      Zn  0.79953780  0.32784684  0.20640988     1.49400
Zn144      Zn  0.77324922  0.30721496  0.16393859     1.49100
Zn145      Zn  0.77041562  0.28113742  0.21260712     1.49500
O146        O  0.78973768  0.29963080  0.19181663    -1.83200
O147        O  0.84554718  0.29824693  0.19346643    -0.73900
O148        O  0.78841050  0.35545783  0.18938466    -0.73700
O149        O  0.78850023  0.29451891  0.13589172    -0.73200
O150        O  0.83379587  0.33045232  0.20871133    -0.73900
O151        O  0.81938100  0.27849940  0.14980720    -0.73500
O152        O  0.77071897  0.34098793  0.15941333    -0.74100
O153        O  0.73945349  0.27470069  0.19759210    -0.73400
O154        O  0.78668249  0.32929844  0.23781834    -0.74200
O155        O  0.74167723  0.29452438  0.16532924    -0.73600
O156        O  0.76528707  0.29845271  0.24259445    -0.74100
O157        O  0.78554310  0.25038736  0.21949594    -0.74000
O158        O  0.81619489  0.25202224  0.19749910    -0.73800
C159        C  0.84980628  0.31727266  0.20276394     0.78000
C160        C  0.77750506  0.35806309  0.17086394     0.78500
C161        C  0.80700936  0.28386972  0.13292155     0.77500
C162        C  0.73070847  0.28177418  0.17900728     0.77900
C163        C  0.77331253  0.31726825  0.24997619     0.79000
C164        C  0.80353999  0.24137735  0.21149815     0.78000
C165        C  0.39482303  0.21663405  0.06290959     0.81100
N166        N  0.38746582  0.21413471  0.04113469    -0.77200
C167        C  0.36513372  0.21185880  0.03609676     0.83600
N168        N  0.34993379  0.21168778  0.05336479    -0.77100
C169        C  0.35667338  0.21383026  0.07534928     0.83700
N170        N  0.37925337  0.21635950  0.08011436    -0.78800
C171        C  0.56326910  0.24769526  0.06344967     0.81100
N172        N  0.57849093  0.24728833  0.08089663    -0.77200
C173        C  0.60098245  0.25121330  0.07687269     0.83600
N174        N  0.60796612  0.25592770  0.05532810    -0.77100
C175        C  0.59304106  0.25631195  0.03770159     0.83700
N176        N  0.57073569  0.25218926  0.04201920    -0.78800
C177        C  0.24661695  0.92352542  0.92663208     0.81100
N178        N  0.24730278  0.94520494  0.91865194    -0.77200
C179        C  0.24807346  0.94964723  0.89599793     0.83600
N180        N  0.24846429  0.93187413  0.88130332    -0.77100
C181        C  0.24809599  0.91005137  0.88883869     0.83700
N182        N  0.24700906  0.90588529  0.91163195    -0.78800
C183        C  0.21606745  0.92354510  0.09493837     0.81100
N184        N  0.21309438  0.94489932  0.10312914    -0.77200
C185        C  0.21150858  0.94882675  0.12582776     0.83600
N186        N  0.21286741  0.93101905  0.14046241    -0.77100
C187        C  0.21624693  0.90956223  0.13269284     0.83700
N188        N  0.21774066  0.90591429  0.10985621    -0.78800
Zn189      Zn  0.31290898  0.14813358  0.83542576     1.49700
Zn190      Zn  0.28622868  0.19565460  0.83424263     1.49400
Zn191      Zn  0.30921930  0.17583471  0.78911717     1.49100
Zn192      Zn  0.26508907  0.15097856  0.81081791     1.49500
O193        O  0.29326513  0.16777197  0.81733021    -1.83200
O194        O  0.31789157  0.16129585  0.86620235    -0.73900
O195        O  0.29806025  0.22395275  0.81773390    -0.73700
O196        O  0.34115685  0.16278617  0.78850098    -0.73200
O197        O  0.30074057  0.19461148  0.86534839    -0.73900
O198        O  0.34369472  0.14421984  0.82113703    -0.73500
O199        O  0.31290663  0.20987269  0.78602647    -0.74100
O200        O  0.26106119  0.14795104  0.77690934    -0.73400
O201        O  0.25238222  0.19783838  0.84062831    -0.74200
O202        O  0.29204856  0.16376625  0.76192919    -0.73600
O203        O  0.23795141  0.16650863  0.82520002    -0.74100
O204        O  0.26570011  0.11875106  0.82352116    -0.74000
O205        O  0.29918817  0.11720445  0.84040983    -0.73800
C206        C  0.31231279  0.17969427  0.87586796     0.78000
C207        C  0.30843118  0.22670409  0.79883412     0.78500
C208        C  0.35256700  0.15089558  0.80254886     0.77500
C209        C  0.27322497  0.15312689  0.75969183     0.77900
C210        C  0.23556763  0.18455095  0.83690869     0.79000
C211        C  0.28046035  0.10781064  0.83494633     0.78000
C212        C  0.22706552  0.04084299  0.41859389     0.81100
N213        N  0.22285351  0.01931500  0.41142712    -0.77200
C214        C  0.21885535  0.01481152  0.38919252     0.83600
N215        N  0.21921728  0.03205962  0.37393688    -0.77100
C216        C  0.22328365  0.05375536  0.38073698     0.83700
N217        N  0.22687816  0.05817328  0.40322263    -0.78800
C218        C  0.23983198  0.03987238  0.58809717     0.81100
N219        N  0.24169742  0.01801640  0.59526789    -0.77200
C220        C  0.24445918  0.01317568  0.61764071     0.83600
N221        N  0.24552738  0.03041724  0.63279608    -0.77100
C222        C  0.24347851  0.05240269  0.62611388     0.83700
N223        N  0.24069865  0.05703486  0.60359207    -0.78800
Zn224      Zn  0.19019194  0.15212950  0.19797805     1.49700
Zn225      Zn  0.16851304  0.19572113  0.17450498     1.49400
Zn226      Zn  0.14067748  0.14875242  0.17589644     1.49100
Zn227      Zn  0.14855961  0.17757544  0.22176528     1.49500
O228        O  0.16192936  0.16854323  0.19254231    -1.83200
O229        O  0.21729672  0.16855680  0.18449613    -0.73900
O230        O  0.15225967  0.19449153  0.14430954    -0.73700
O231        O  0.15369966  0.11709288  0.17134390    -0.73200
O232        O  0.20206841  0.19873222  0.16791606    -0.73900
O233        O  0.18887496  0.12080599  0.18423394    -0.73500
O234        O  0.13317589  0.16198211  0.14499611    -0.74100
O235        O  0.11651840  0.16549371  0.22453316    -0.73400
O236        O  0.15774984  0.22395149  0.19048907    -0.74200
O237        O  0.11093225  0.14613203  0.19272440    -0.73600
O238        O  0.14551844  0.21174864  0.22406702    -0.74100
O239        O  0.16639144  0.16481196  0.24831890    -0.74000
O240        O  0.19512418  0.14720817  0.23150526    -0.73800
C241        C  0.21932178  0.18672323  0.17284069     0.78000
C242        C  0.13885271  0.18031734  0.13486878     0.78500
C243        C  0.17334608  0.10880897  0.17495035     0.77500
C244        C  0.10370813  0.15367886  0.21168047     0.77900
C245        C  0.14877640  0.22777969  0.20980271     0.79000
C246        C  0.18414674  0.15255685  0.24936596     0.78000
C247        C  0.92277334  0.90287207  0.26732711     0.81100
N248        N  0.94420543  0.89584321  0.27216076    -0.77200
C249        C  0.94906518  0.87346840  0.27374682     0.83600
N250        N  0.93231634  0.85790176  0.27057147    -0.77100
C251        C  0.91075435  0.86443058  0.26558865     0.83700
N252        N  0.90605579  0.88704531  0.26398281    -0.78800
C253        C  0.91826151  0.07199436  0.24191676     0.81100
N254        N  0.89978579  0.08586754  0.24220749    -0.77200
C255        C  0.90257318  0.10886873  0.24290002     0.83600
N256        N  0.92395685  0.11781616  0.24310690    -0.77100
C257        C  0.94247578  0.10425948  0.24284928     0.83700
N258        N  0.93934088  0.08145627  0.24254361    -0.78800
Zn259      Zn  0.18335196  0.80468639  0.34834934     1.49700
Zn260      Zn  0.18275067  0.77522824  0.30203678     1.49400
Zn261      Zn  0.13684132  0.78218092  0.33187772     1.49100
Zn262      Zn  0.15776118  0.82404086  0.30515228     1.49500
O263        O  0.16530028  0.79629655  0.32167435    -1.83200
O264        O  0.21320483  0.78870778  0.34810832    -0.73900
O265        O  0.16420112  0.74597916  0.29666378    -0.73700
O266        O  0.13540946  0.77999797  0.36609503    -0.73200
O267        O  0.21287806  0.76645180  0.31753036    -0.73900
O268        O  0.16744327  0.79624264  0.37757795    -0.73500
O269        O  0.13392536  0.75084117  0.31873555    -0.74100
O270        O  0.12402387  0.82865667  0.30246107    -0.73400
O271        O  0.18980882  0.79050084  0.27114728    -0.74200
O272        O  0.10918742  0.79995433  0.32191181    -0.73600
O273        O  0.17062778  0.82287097  0.27375446    -0.74100
O274        O  0.17065863  0.85196407  0.32036181    -0.74000
O275        O  0.18975550  0.83824379  0.34965654    -0.73800
C276        C  0.22256104  0.77391865  0.33551900     0.78000
C277        C  0.14543917  0.73873375  0.30504749     0.78500
C278        C  0.14856888  0.78649901  0.38203748     0.77500
C279        C  0.10680632  0.81795000  0.31013604     0.77900
C280        C  0.18307735  0.80926935  0.26258156     0.79000
C281        C  0.18332560  0.85501152  0.33764472     0.78000
C282        C  0.41964829  0.39661928  0.75235212     0.81100
N283        N  0.44053871  0.38776924  0.75642260    -0.77200
C284        C  0.44349618  0.36537094  0.76079622     0.83600
N285        N  0.42499654  0.35153272  0.76073945    -0.77100
C286        C  0.40384275  0.35984958  0.75684469     0.83700
N287        N  0.40113064  0.38252312  0.75295199    -0.78800
C288        C  0.42269481  0.56765482  0.73847536     0.81100
N289        N  0.40486405  0.58225888  0.73994091    -0.77200
C290        C  0.40847130  0.60513082  0.73930829     0.83600
N291        N  0.43010966  0.61311458  0.73727214    -0.77100
C292        C  0.44803710  0.59888087  0.73561647     0.83700
N293        N  0.44414111  0.57613892  0.73618892    -0.78800
C294        C  0.73841064  0.43197098  0.41963971     0.81100
N295        N  0.73765661  0.41408179  0.40500538    -0.77200
C296        C  0.73951084  0.41750401  0.38216800     0.83600
N297        N  0.74204084  0.43902233  0.37406079    -0.77100
C298        C  0.74260588  0.45703713  0.38845937     0.83700
N299        N  0.74079710  0.45331432  0.41115626    -0.78800
C300        C  0.71152445  0.43137647  0.58842378     0.81100
N301        N  0.71064794  0.45298109  0.59646536    -0.77200
C302        C  0.70997312  0.45705581  0.61911977     0.83600
N303        N  0.71048748  0.43938854  0.63383630    -0.77100
C304        C  0.71206039  0.41764476  0.62631378     0.83700
N305        N  0.71241907  0.41372960  0.60345121    -0.78800
Zn306      Zn  0.67263221  0.70356444  0.67171391     1.49700
Zn307      Zn  0.69402587  0.65954220  0.69673464     1.49400
Zn308      Zn  0.64971111  0.68342590  0.71687033     1.49100
Zn309      Zn  0.64607900  0.65576162  0.67120965     1.49500
O310        O  0.66584833  0.67566114  0.68905357    -1.83200
O311        O  0.70656695  0.70612142  0.66595384    -0.73900
O312        O  0.69667796  0.65489270  0.73105944    -0.73700
O313        O  0.64503126  0.71688507  0.71893526    -0.73200
O314        O  0.72146847  0.67635121  0.68376070    -0.73900
O315        O  0.66108832  0.73175629  0.68824335    -0.73500
O316        O  0.66627483  0.67241117  0.74438959    -0.74100
O317        O  0.61592774  0.65005239  0.68614663    -0.73400
O318        O  0.69417054  0.62811798  0.68254841    -0.74200
O319        O  0.61852269  0.66908938  0.71844989    -0.73600
O320        O  0.66049539  0.62555213  0.66583065    -0.74100
O321        O  0.63941293  0.66939425  0.64089352    -0.74000
O322        O  0.65721348  0.70261795  0.64066124    -0.73800
C323        C  0.72370795  0.69413130  0.67147182     0.78000
C324        C  0.68410029  0.66073275  0.74770769     0.78500
C325        C  0.64987854  0.73404475  0.70669698     0.77500
C326        C  0.60741125  0.65634893  0.70496222     0.77900
C327        C  0.67964115  0.61700042  0.67084419     0.79000
C328        C  0.64460739  0.68787559  0.63089907     0.78000
C329        C  0.71622865  0.52063145  0.62745115    -0.13500
C330        C  0.69942308  0.52472110  0.64382838     0.16900
C331        C  0.68602101  0.50647585  0.65210980     0.03200
C332        C  0.69015974  0.48445884  0.64404780    -0.12000
C333        C  0.70705616  0.48035928  0.62775224    -0.03000
C334        C  0.72015383  0.49864726  0.61938685     0.02500
C335        C  0.69496459  0.54842246  0.65057649     0.09300
N336        N  0.66788123  0.51001178  0.66812146     0.65600
H337        H  0.67987468  0.47042852  0.65029113     0.18600
N338        N  0.73787460  0.49502938  0.60317681     0.76100
H339        H  0.72633970  0.53464473  0.62088896     0.10100
C340        C  0.70712788  0.55893224  0.66832675     0.03800
C341        C  0.70195680  0.58126841  0.67457155    -0.04900
C342        C  0.68500596  0.59359502  0.66311210    -0.23300
C343        C  0.67301546  0.58293633  0.64501798     0.13000
C344        C  0.67794027  0.56042088  0.63924481    -0.12500
N345        N  0.72428933  0.54687037  0.68054286     0.64700
H346        H  0.71121508  0.58894931  0.68856785     0.12500
N347        N  0.65632612  0.59478795  0.63184292     0.61300
H348        H  0.66870339  0.55231527  0.62546502     0.08700
O349        O  0.75579322  0.48492973  0.60907905    -0.40100
O350        O  0.73638804  0.50341585  0.58347237    -0.39300
O351        O  0.65014821  0.49783711  0.66726006    -0.39300
O352        O  0.67008565  0.52410097  0.68414211    -0.37000
O353        O  0.66176534  0.61282032  0.62149820    -0.37900
O354        O  0.63749165  0.58536751  0.62744100    -0.34100
O355        O  0.74259610  0.54154383  0.67078681    -0.35500
O356        O  0.72189366  0.54303351  0.70153514    -0.39800
C357        C  0.73912896  0.44236764  0.48349453    -0.13500
C358        C  0.72525290  0.42464735  0.49142823     0.16900
C359        C  0.71704237  0.40817473  0.47592286     0.03200
C360        C  0.72263496  0.41025772  0.45270807    -0.12000
C361        C  0.73590076  0.42852792  0.44460673    -0.03000
C362        C  0.74490813  0.44431712  0.46045968     0.02500
C363        C  0.71990551  0.42414415  0.51609494     0.09300
N364        N  0.70248026  0.38982017  0.48319283     0.65600
H365        H  0.71559067  0.39813968  0.44073576     0.18600
N366        N  0.76052664  0.46193971  0.45369167     0.76100
H367        H  0.74592955  0.45458519  0.49552566     0.10100
C368        C  0.72888707  0.40764237  0.53102481     0.03800
C369        C  0.72466459  0.40943105  0.55452590    -0.04900
C370        C  0.71191081  0.42747032  0.56342623    -0.23300
C371        C  0.70154806  0.44292360  0.54815598     0.13000
C372        C  0.70607625  0.44131309  0.52481189    -0.12500
N373        N  0.74305702  0.38964868  0.52282307     0.64700
H374        H  0.73259232  0.39745245  0.56600552     0.12500
N375        N  0.68599753  0.45996328  0.55594565     0.61300
H376        H  0.69858591  0.45349296  0.51322192     0.08700
O377        O  0.77729621  0.45727338  0.44117846    -0.40100
O378        O  0.75957801  0.48127927  0.46286572    -0.39300
O379        O  0.68764381  0.39291738  0.49836800    -0.39300
O380        O  0.70295857  0.37099458  0.47296476    -0.37000
O381        O  0.67072127  0.45486821  0.57018897    -0.37900
O382        O  0.68548379  0.47916763  0.54639548    -0.34100
O383        O  0.75853063  0.39367809  0.50846846    -0.35500
O384        O  0.74147716  0.37005131  0.53142522    -0.39800
C385        C  0.49841797  0.63762212  0.72131097    -0.13500
C386        C  0.51679318  0.62311559  0.72515726     0.16900
C387        C  0.51270582  0.60101074  0.73367251     0.03200
C388        C  0.49018548  0.59376388  0.73737250    -0.12000
C389        C  0.47159357  0.60794035  0.73261532    -0.03000
C390        C  0.47600541  0.63032421  0.72482883     0.02500
C391        C  0.54001315  0.63147019  0.71982800     0.09300
N392        N  0.53102905  0.58555554  0.73808518     0.65600
H393        H  0.48720265  0.57666804  0.74359523     0.18600
N394        N  0.45802062  0.64568135  0.71956521     0.76100
H395        H  0.50151574  0.65467687  0.71497151     0.10100
C396        C  0.54651333  0.63673835  0.69726712     0.03800
C397        C  0.56842299  0.64530006  0.69310689    -0.04900
C398        C  0.58405999  0.64876620  0.71085219    -0.23300
C399        C  0.57735026  0.64378167  0.73343362     0.13000
C400        C  0.55551147  0.63502238  0.73763003    -0.12500
N401        N  0.53134525  0.63305656  0.67839557     0.64700
H402        H  0.57342546  0.64899565  0.67572475     0.12500
N403        N  0.59262400  0.64677335  0.75218692     0.61300
H404        H  0.55048408  0.63117543  0.75497575     0.08700
O405        O  0.44722528  0.64357384  0.70112197    -0.40100
O406        O  0.45534546  0.66326551  0.73148198    -0.39300
O407        O  0.52970692  0.57174842  0.75448835    -0.39300
O408        O  0.54758579  0.58417311  0.72450698    -0.37000
O409        O  0.59722310  0.66654036  0.75914294    -0.37900
O410        O  0.59759431  0.62997182  0.76452996    -0.34100
O411        O  0.53179366  0.64632764  0.66151106    -0.35500
O412        O  0.51908446  0.61540407  0.67747914    -0.39800
C413        C  0.39736976  0.45599681  0.73723951    -0.13500
C414        C  0.41637907  0.46960053  0.74246579     0.16900
C415        C  0.43615678  0.45919185  0.75117686     0.03200
C416        C  0.43662191  0.43553636  0.75377215    -0.12000
C417        C  0.41775148  0.42167720  0.74838425    -0.03000
C418        C  0.39792877  0.43223755  0.73987555     0.02500
C419        C  0.41562352  0.49457330  0.73842039     0.09300
N420        N  0.45576298  0.47233581  0.75790313     0.65600
H421        H  0.45188254  0.42802313  0.76072624     0.18600
N422        N  0.37855694  0.41914909  0.73300294     0.76100
H423        H  0.38219833  0.46384243  0.73042200     0.10100
C424        C  0.43149775  0.50559164  0.72397660     0.03800
C425        C  0.43319604  0.52939207  0.72439337    -0.04900
C426        C  0.41913678  0.54261488  0.73837583    -0.23300
C427        C  0.40242979  0.53159264  0.75185955     0.13000
C428        C  0.40075217  0.50774521  0.75150724    -0.12500
N429        N  0.44616942  0.49291810  0.70911663     0.64700
H430        H  0.44556845  0.53773216  0.71350859     0.12500
N431        N  0.38822656  0.54402546  0.76723888     0.61300
H432        H  0.38876603  0.49932071  0.76275449     0.08700
O433        O  0.37949247  0.40724014  0.71519827    -0.40100
O434        O  0.35971812  0.42186286  0.74285930    -0.39300
O435        O  0.45342269  0.49082742  0.76845297    -0.39300
O436        O  0.47547559  0.46433298  0.75547668    -0.37000
O437        O  0.39691004  0.55843731  0.78059912    -0.37900
O438        O  0.36775096  0.53809908  0.77004485    -0.34100
O439        O  0.43927692  0.47473727  0.69999738    -0.35500
O440        O  0.46537671  0.50083243  0.70351044    -0.39800
C441        C  0.00573866  0.84322608  0.27163505    -0.13500
C442        C  0.01612452  0.85120238  0.29157423     0.16900
C443        C  0.00466048  0.86709091  0.30537106     0.03200
C444        C  0.98280639  0.87422694  0.29899164    -0.12000
C445        C  0.97238351  0.86610985  0.27909140    -0.03000
C446        C  0.98411874  0.85065868  0.26504583     0.02500
C447        C  0.03909293  0.84269135  0.29721071     0.09300
N448        N  0.01491686  0.87620827  0.32565070     0.65600
H449        H  0.97383974  0.88623551  0.30960647     0.18600
N450        N  0.97488028  0.84316023  0.24365902     0.76100
H451        H  0.01479608  0.83137682  0.26091373     0.10100
C452        C  0.04330525  0.82846734  0.31615963     0.03800
C453        C  0.06557538  0.82078427  0.32011151    -0.04900
C454        C  0.08359377  0.82668023  0.30546749    -0.23300
C455        C  0.07909388  0.84095893  0.28668835     0.13000
C456        C  0.05707359  0.84881045  0.28281433    -0.12500
N457        N  0.02531640  0.82138039  0.33124058     0.64700
H458        H  0.06879008  0.80987065  0.33459846     0.12500
N459        N  0.09635969  0.84650111  0.27051103     0.61300
H460        H  0.05388137  0.85954347  0.26816517     0.08700
O461        O  0.97972354  0.82374339  0.23606017    -0.40100
O462        O  0.96452548  0.85692306  0.23091037    -0.39300
O463        O  0.03584926  0.88107354  0.32612279    -0.39300
O464        O  0.00269322  0.88130356  0.34251446    -0.37000
O465        O  0.10090089  0.83253971  0.25494926    -0.37900
O466        O  0.10394145  0.86655729  0.26926781    -0.34100
O467        O  0.00569356  0.81702046  0.32363483    -0.35500
O468        O  0.02951517  0.81744940  0.35193635    -0.39800
C469        C  0.92955548  0.96704208  0.27035685    -0.13500
C470        C  0.91328435  0.97442860  0.25461733     0.16900
C471        C  0.89889025  0.95819634  0.24402079     0.03200
C472        C  0.90130153  0.93501648  0.24957635    -0.12000
C473        C  0.91822052  0.92760759  0.26476216    -0.03000
C474        C  0.93212507  0.94405320  0.27557980     0.02500
C475        C  0.91275715  0.99915672  0.24932670     0.09300
N476        N  0.88256998  0.96467907  0.22699286     0.65600
H477        H  0.89078856  0.92256673  0.24091334     0.18600
N478        N  0.94887498  0.93778343  0.29209067     0.76100
H479        H  0.94044887  0.97937883  0.27875303     0.10100
C480        C  0.89363332  0.01306952  0.25338788     0.03800
C481        C  0.89538917  0.03664306  0.24946359    -0.04900
C482        C  0.91582012  0.04672475  0.24193030    -0.23300
C483        C  0.93437443  0.03239030  0.23656943     0.13000
C484        C  0.93266318  0.00904244  0.24064584    -0.12500
N485        N  0.87270548  0.00387063  0.26222367     0.64700
H486        H  0.88102861  0.04729758  0.25356887     0.12500
N487        N  0.95501364  0.04104112  0.22669012     0.61300
H488        H  0.94710996  0.99834886  0.23685741     0.08700
O489        O  0.96935386  0.94376259  0.28943670    -0.40100
O490        O  0.94289376  0.92807803  0.31030801    -0.39300
O491        O  0.88709083  0.98031724  0.21296412    -0.39300
O492        O  0.86449644  0.95327088  0.22445857    -0.37000
O493        O  0.97402015  0.03432448  0.23397070    -0.37900
O494        O  0.95426441  0.05259589  0.20860173    -0.34100
O495        O  0.87289539  0.98854310  0.27725137    -0.35500
O496        O  0.85394642  0.01245766  0.25646970    -0.39800
C497        C  0.04981459  0.14304676  0.24659512    -0.13500
C498        C  0.03468600  0.13604003  0.22956271     0.16900
C499        C  0.04183211  0.13602124  0.20666088     0.03200
C500        C  0.06422325  0.14236845  0.20140912    -0.12000
C501        C  0.07979394  0.14875317  0.21845450    -0.03000
C502        C  0.07217990  0.14960246  0.24133026     0.02500
C503        C  0.01140715  0.12886999  0.23587032     0.09300
N504        N  0.02670793  0.12943305  0.18858466     0.65600
H505        H  0.06958356  0.14193453  0.18376874     0.18600
N506        N  0.08683203  0.15668902  0.25948095     0.76100
H507        H  0.04415684  0.14344969  0.26415397     0.10100
C508        C  0.00693362  0.10642668  0.24283183     0.03800
C509        C  0.98443194  0.09909108  0.24555107    -0.04900
C510        C  0.96601152  0.11379417  0.24181741    -0.23300
C511        C  0.97073365  0.13664431  0.23566536     0.13000
C512        C  0.99330163  0.14381613  0.23253759    -0.12500
N513        N  0.02504996  0.09059405  0.24593493     0.64700
H514        H  0.98142069  0.08150497  0.25045398     0.12500
N515        N  0.95293378  0.15253979  0.23156675     0.61300
H516        H  0.99673302  0.16113436  0.22695120     0.08700
O517        O  0.09214569  0.17740404  0.26132379    -0.40100
O518        O  0.08996565  0.14361570  0.27620534    -0.39300
O519        O  0.02711097  0.14000593  0.16988975    -0.39300
O520        O  0.01452798  0.11179374  0.19037812    -0.37000
O521        O  0.94417306  0.16299547  0.24807100    -0.37900
O522        O  0.94879984  0.15896126  0.21150557    -0.34100
O523        O  0.03993184  0.09403318  0.26103442    -0.35500
O524        O  0.02514773  0.07223748  0.23488865    -0.39800
C525        C  0.19774626  0.95376678  0.38733977    -0.13500
C526        C  0.20810213  0.94587760  0.36738337     0.16900
C527        C  0.22181195  0.96089987  0.35441901     0.03200
C528        C  0.22437581  0.98352640  0.36152008    -0.12000
C529        C  0.21423090  0.99130409  0.38163824    -0.03000
C530        C  0.20065637  0.97623620  0.39464379     0.02500
C531        C  0.20297471  0.92239106  0.35961729     0.09300
N532        N  0.23376227  0.95330773  0.33451946     0.65600
H533        H  0.23513993  0.99492874  0.35173549     0.18600
N534        N  0.18885759  0.98369401  0.41464419     0.76100
H535        H  0.18672582  0.94248182  0.39697633     0.10100
C536        C  0.20668684  0.90331088  0.37370713     0.03800
C537        C  0.20021103  0.88167860  0.36600344    -0.04900
C538        C  0.19044957  0.87839362  0.34437054    -0.23300
C539        C  0.18706793  0.89759145  0.33021962     0.13000
C540        C  0.19299810  0.91926535  0.33815873    -0.12500
N541        N  0.21716545  0.90551771  0.39571019     0.64700
H542        H  0.20299973  0.86724594  0.37709375     0.12500
N543        N  0.17802447  0.89551742  0.30766448     0.61300
H544        H  0.18994057  0.93387206  0.32735052     0.08700
O545        O  0.18755351  0.97091204  0.43185812    -0.40100
O546        O  0.17742288  0.00175387  0.41419324    -0.39300
O547        O  0.23669172  0.96657172  0.31786986    -0.39300
O548        O  0.24338229  0.93420881  0.33440384    -0.37000
O549        O  0.16162187  0.90782823  0.30156443    -0.37900
O550        O  0.18881784  0.88449766  0.29281722    -0.34100
O551        O  0.21074753  0.89303019  0.41199478    -0.35500
O552        O  0.23413021  0.91847244  0.39846361    -0.39800
C553        C  0.22441262  0.08524921  0.32444044    -0.13500
C554        C  0.21428806  0.10594170  0.33027573     0.16900
C555        C  0.20882466  0.11020328  0.35334140     0.03200
C556        C  0.21291393  0.09326801  0.36973845    -0.12000
C557        C  0.22249074  0.07233989  0.36370871    -0.03000
C558        C  0.22899802  0.06866348  0.34084975     0.02500
C559        C  0.20761050  0.12152290  0.31149112     0.09300
N560        N  0.19895730  0.13136852  0.36032964     0.65600
H561        H  0.20802804  0.09623428  0.38725990     0.18600
N562        N  0.24043507  0.04830509  0.33403822     0.76100
H563        H  0.22862189  0.08185736  0.30681327     0.10100
C564        C  0.22324709  0.12836817  0.29447282     0.03800
C565        C  0.21513583  0.13898480  0.27468178    -0.04900
C566        C  0.19187920  0.14334454  0.27156153    -0.23300
C567        C  0.17643300  0.13739892  0.28909425     0.13000
C568        C  0.18451005  0.12671458  0.30881504    -0.12500
N569        N  0.24726379  0.12447599  0.29692371     0.64700
H570        H  0.22712346  0.14384928  0.26151615     0.12500
N571        N  0.15235698  0.14021805  0.28646695     0.61300
H572        H  0.17237788  0.12100144  0.32151281     0.08700
O573        O  0.23510905  0.03856746  0.31565471    -0.40100
O574        O  0.25748706  0.04143168  0.34506669    -0.39300
O575        O  0.18549632  0.13195331  0.37704370    -0.39300
O576        O  0.20498737  0.14978519  0.35103953    -0.37000
O577        O  0.14223365  0.13135838  0.26970853    -0.37900
O578        O  0.14075208  0.14790575  0.30275447    -0.34100
O579        O  0.25948275  0.12116041  0.27960199    -0.35500
O580        O  0.25666702  0.12605627  0.31617528    -0.39800
C581        C  0.24112725  0.03088103  0.48061596    -0.13500
C582        C  0.23027293  0.04921784  0.49103689     0.16900
C583        C  0.22052413  0.06640104  0.47740174     0.03200
C584        C  0.22107636  0.06413596  0.45353961    -0.12000
C585        C  0.23084066  0.04503373  0.44317852    -0.03000
C586        C  0.24181859  0.02869276  0.45693960     0.02500
C587        C  0.22965881  0.04947768  0.51624280     0.09300
N588        N  0.20915869  0.08553274  0.48734652     0.65600
H589        H  0.21258276  0.07665008  0.44307080     0.18600
N590        N  0.25408287  0.01004592  0.44717914     0.76100
H591        H  0.24928657  0.01816308  0.49112865     0.10100
C592        C  0.21799518  0.03220958  0.52823089     0.03800
C593        C  0.22155697  0.02981980  0.55165090    -0.04900
C594        C  0.23625930  0.04442679  0.56357744    -0.23300
C595        C  0.24737570  0.06228815  0.55170674     0.13000
C596        C  0.24371198  0.06469419  0.52815234    -0.12500
N597        N  0.20278799  0.01679810  0.51676273     0.64700
H598        H  0.21265516  0.01639538  0.56070743     0.12500
N599        N  0.26368184  0.07690526  0.56269556     0.61300
H600        H  0.25306566  0.07756711  0.51876122     0.08700
O601        O  0.25424414  0.99097985  0.45702345    -0.40100
O602        O  0.26699452  0.01330124  0.43031376    -0.39300
O603        O  0.20895669  0.10437543  0.47708426    -0.39300
O604        O  0.19756674  0.08323080  0.50528405    -0.37000
O605        O  0.27823756  0.06872336  0.57614383    -0.37900
O606        O  0.26586968  0.09727616  0.55630213    -0.34100
O607        O  0.20131085  0.99633821  0.52305562    -0.35500
O608        O  0.18952928  0.02394716  0.50148969    -0.39800
C609        C  0.36857598  0.30594197  0.75342792    -0.13500
C610        C  0.35078723  0.31058025  0.76866249     0.16900
C611        C  0.34909841  0.33274647  0.77790044     0.03200
C612        C  0.36591999  0.34911647  0.77262810    -0.12000
C613        C  0.38413477  0.34403888  0.75811293    -0.03000
C614        C  0.38492084  0.32245523  0.74763217     0.02500
C615        C  0.33592663  0.29121476  0.77622090     0.09300
N616        N  0.33070309  0.33882971  0.79277591     0.65600
H617        H  0.36521870  0.36570532  0.78049744     0.18600
N618        N  0.40211627  0.31707433  0.73107313     0.76100
H619        H  0.36995743  0.28910278  0.74623636     0.10100
C620        C  0.32604638  0.27582341  0.76047139     0.03800
C621        C  0.31688210  0.25511145  0.76837591    -0.04900
C622        C  0.31634129  0.24971018  0.79167132    -0.23300
C623        C  0.32458031  0.26589363  0.80744710     0.13000
C624        C  0.33439697  0.28625186  0.79958318    -0.12500
N625        N  0.32514087  0.28096524  0.73652556     0.64700
H626        H  0.30995627  0.24311073  0.75623201     0.12500
N627        N  0.32470212  0.26131165  0.83139353     0.61300
H628        H  0.34212650  0.29766273  0.81181538     0.08700
O629        O  0.40822875  0.29677339  0.72818970    -0.40100
O630        O  0.40928239  0.33210238  0.71745904    -0.39300
O631        O  0.33375287  0.35340635  0.80822782    -0.39300
O632        O  0.31091434  0.33111304  0.78937985    -0.37000
O633        O  0.33563186  0.24460256  0.83908926    -0.37900
O634        O  0.31662484  0.27566258  0.84505625    -0.34100
O635        O  0.32484923  0.26515747  0.72203930    -0.35500
O636        O  0.32242031  0.30114671  0.72983559    -0.39800
C637        C  0.25307718  0.10922536  0.65645629    -0.13500
C638        C  0.25301971  0.10215393  0.67920347     0.16900
C639        C  0.24837615  0.07919625  0.68443817     0.03200
C640        C  0.24418860  0.06394776  0.66674069    -0.12000
C641        C  0.24496353  0.07059489  0.64373898    -0.03000
C642        C  0.24884911  0.09389444  0.63865864     0.02500
C643        C  0.25743433  0.11875822  0.69755112     0.09300
N644        N  0.24871786  0.07098031  0.70750413     0.65600
H645        H  0.24101201  0.04605998  0.67126104     0.18600
N646        N  0.24853804  0.10231971  0.61579795     0.76100
H647        H  0.25626914  0.12724981  0.65245572     0.10100
C648        C  0.27919472  0.12842990  0.70086303     0.03800
C649        C  0.28328401  0.14164341  0.72027505    -0.04900
C650        C  0.26631931  0.14488002  0.73680992    -0.23300
C651        C  0.24402086  0.13677326  0.73237418     0.13000
C652        C  0.23994395  0.12365333  0.71291022    -0.12500
N653        N  0.29770336  0.12355034  0.68574879     0.64700
H654        H  0.30049374  0.14776364  0.72336285     0.12500
N655        N  0.22547969  0.14150418  0.74748301     0.61300
H656        H  0.22299952  0.11669874  0.70993464     0.08700
O657        O  0.23010484  0.10220289  0.60479222    -0.40100
O658        O  0.26488281  0.11439666  0.60870938    -0.39300
O659        O  0.23506827  0.05550545  0.71364088    -0.39300
O660        O  0.26421486  0.07720891  0.72103914    -0.37000
O661        O  0.22221176  0.16151421  0.75436137    -0.37900
O662        O  0.21089326  0.12630794  0.75191553    -0.34100
O663        O  0.31157724  0.13906393  0.68027840    -0.35500
O664        O  0.30187845  0.10332620  0.68011800    -0.39800
C665        C  0.22199643  0.87506536  0.18728598    -0.13500
C666        C  0.21172629  0.85448876  0.18095457     0.16900
C667        C  0.20474170  0.85140428  0.15821308     0.03200
C668        C  0.20739497  0.86919343  0.14247117    -0.12000
C669        C  0.21682317  0.89020634  0.14898910    -0.03000
C670        C  0.22472006  0.89286520  0.17161315     0.02500
C671        C  0.20467093  0.83847742  0.19921332     0.09300
N672        N  0.19427234  0.83055790  0.15111949     0.65600
H673        H  0.20126335  0.86681627  0.12524544     0.18600
N674        N  0.23527667  0.91356909  0.17905489     0.76100
H675        H  0.22720152  0.87760487  0.20480015     0.10100
C676        C  0.22053403  0.82727917  0.21327865     0.03800
C677        C  0.21296788  0.81616386  0.23315980    -0.04900
C678        C  0.18988208  0.81622810  0.23929488    -0.23300
C679        C  0.17397134  0.82651646  0.22451743     0.13000
C680        C  0.18155019  0.83744183  0.20472162    -0.12500
N681        N  0.24432430  0.82771031  0.20793980     0.64700
H682        H  0.22528763  0.80844375  0.24443660     0.12500
N683        N  0.15013527  0.82663954  0.22973099     0.61300
H684        H  0.16936240  0.84609461  0.19398477     0.08700
O685        O  0.22879812  0.92296559  0.19719662    -0.40100
O686        O  0.25247559  0.92130944  0.16872406    -0.39300
O687        O  0.17569036  0.83081805  0.14037763    -0.39300
O688        O  0.20414630  0.81190602  0.15456189    -0.37000
O689        O  0.13838537  0.84398697  0.22542685    -0.37900
O690        O  0.14037791  0.80877865  0.23667996    -0.34100
O691        O  0.25884514  0.83104667  0.22341642    -0.35500
O692        O  0.25095895  0.82364054  0.18794429    -0.39800
C693        C  0.20945153  0.01339816  0.13141438    -0.13500
C694        C  0.19633087  0.01588454  0.15114191     0.16900
C695        C  0.18871493  0.99635115  0.16285000     0.03200
C696        C  0.19415806  0.97475794  0.15439250    -0.12000
C697        C  0.20729015  0.97214224  0.13456286    -0.03000
C698        C  0.21525789  0.99185447  0.12310866     0.02500
C699        C  0.19034035  0.03913098  0.15874379     0.09300
N700        N  0.17575418  0.99816976  0.18344392     0.65600
H701        H  0.18799264  0.95987147  0.16340131     0.18600
N702        N  0.22982173  0.99043841  0.10356046     0.76100
H703        H  0.21548145  0.02843873  0.12255903     0.10100
C704        C  0.20708173  0.05444561  0.16670139     0.03800
C705        C  0.20104971  0.07698913  0.17141128    -0.04900
C706        C  0.17859882  0.08478370  0.16861388    -0.23300
C707        C  0.16187797  0.06916736  0.16077376     0.13000
C708        C  0.16790211  0.04658967  0.15617594    -0.12500
N709        N  0.23012899  0.04730567  0.17045203     0.64700
H710        H  0.21411007  0.08844869  0.17765986     0.12500
N711        N  0.13883169  0.07585521  0.15694853     0.61300
H712        H  0.15507346  0.03491988  0.14978526     0.08700
O713        O  0.24727229  0.97808654  0.10412267    -0.40100
O714        O  0.22724569  0.00403005  0.08714595    -0.39300
O715        O  0.15897642  0.98513331  0.18687048    -0.39300
O716        O  0.18222538  0.01135342  0.19911192    -0.37000
O717        O  0.13424411  0.08883448  0.14049222    -0.37900
O718        O  0.12288793  0.06526193  0.16676417    -0.34100
O719        O  0.24642287  0.06099438  0.16721465    -0.35500
O720        O  0.23417583  0.02809986  0.17905992    -0.39800
C721        C  0.28435781  0.05012112  0.86473355    -0.13500
C722        C  0.26316961  0.04045937  0.85958264     0.16900
C723        C  0.24785194  0.05255534  0.84559615     0.03200
C724        C  0.25422442  0.07410961  0.83725440    -0.12000
C725        C  0.27546606  0.08401024  0.84253810    -0.03000
C726        C  0.29085994  0.07138951  0.85612432     0.02500
C727        C  0.25813794  0.01728730  0.86837785     0.09300
N728        N  0.22576709  0.04347139  0.83998748     0.65600
H729        H  0.24216997  0.08344057  0.82698446     0.18600
N730        N  0.31336042  0.07949602  0.86101704     0.76100
H731        H  0.29630838  0.04066233  0.87504366     0.10100
C732        C  0.25595564  0.99829821  0.85386315     0.03800
C733        C  0.25170509  0.97678153  0.86337878    -0.04900
C734        C  0.24976372  0.97347687  0.88707929    -0.23300
C735        C  0.25103453  0.99286230  0.90139817     0.13000
C736        C  0.25561932  0.01429920  0.89189787    -0.12500
N737        N  0.25859776  0.00033669  0.82959491     0.64700
H738        H  0.25069304  0.96235657  0.85201252     0.12500
N739        N  0.24731900  0.99142291  0.92546600     0.61300
H740        H  0.25679534  0.02895619  0.90298757     0.08700
O741        O  0.32754915  0.08169518  0.84504314    -0.40100
O742        O  0.32031824  0.07997433  0.88132844    -0.39300
O743        O  0.21457823  0.03207183  0.85439388    -0.39300
O744        O  0.21656897  0.04835605  0.82121137    -0.37000
O745        O  0.26087825  0.00131494  0.93890108    -0.37900
O746        O  0.22824606  0.98479085  0.93285906    -0.34100
O747        O  0.27346375  0.01346686  0.82124421    -0.35500
O748        O  0.24756028  0.98738161  0.81645990    -0.39800
C749        C  0.25201856  0.93063978  0.99077795    -0.13500
C750        C  0.23518416  0.91562447  0.99860482     0.16900
C751        C  0.22322633  0.90207508  0.98281404     0.03200
C752        C  0.22800297  0.90415207  0.95946702    -0.12000
C753        C  0.24458405  0.91951199  0.95150560    -0.03000
C754        C  0.25714309  0.93257306  0.96748583     0.02500
C755        C  0.22911608  0.91599739  0.02312589     0.09300
N756        N  0.20553337  0.88692803  0.99014189     0.65600
H757        H  0.21816120  0.89423325  0.94740952     0.18600
N758        N  0.27528866  0.94755100  0.96048422     0.76100
H759        H  0.26126075  0.94091337  0.00300797     0.10100
C760        C  0.23844073  0.90058384  0.03893966     0.03800
C761        C  0.23283628  0.90253138  0.06212121    -0.04900
C762        C  0.21843989  0.91981948  0.06997506    -0.23300
C763        C  0.20813542  0.93443764  0.05383663     0.13000
C764        C  0.21389554  0.93253066  0.03072288    -0.12500
N765        N  0.25395878  0.88325009  0.03187965     0.64700
H766        H  0.24078227  0.89117936  0.07422335     0.12500
N767        N  0.19132195  0.95076653  0.06044164     0.61300
H768        H  0.20626122  0.94392283  0.01844598     0.08700
O769        O  0.28842149  0.94196753  0.94448674    -0.40100
O770        O  0.28006892  0.96494737  0.97211763    -0.39300
O771        O  0.18598828  0.88813857  0.98137235    -0.39300
O772        O  0.20991552  0.87102120  0.00382715    -0.37000
O773        O  0.17561327  0.94515373  0.07400861    -0.37900
O774        O  0.19022862  0.96967008  0.05036080    -0.34100
O775        O  0.27021037  0.88795960  0.01863340    -0.35500
O776        O  0.25261534  0.86360476  0.04040708    -0.39800
C777        C  0.26758514  0.22015804  0.14515868    -0.13500
C778        C  0.28215016  0.20252881  0.13868559     0.16900
C779        C  0.27715990  0.18007830  0.14577747     0.03200
C780        C  0.25741995  0.17581883  0.15852950    -0.12000
C781        C  0.24199300  0.19319857  0.16364951    -0.03000
C782        C  0.24754744  0.21581422  0.15744014     0.02500
C783        C  0.30175855  0.20775300  0.12354572     0.09300
N784        N  0.29098253  0.16122316  0.13895648     0.65600
H785        H  0.25324920  0.15840598  0.16298462     0.18600
N786        N  0.23320151  0.23451378  0.16348242     0.76100
H787        H  0.27170057  0.23746030  0.14022695     0.10100
C788        C  0.29840679  0.21764488  0.10191607     0.03800
C789        C  0.31700156  0.22063985  0.08737843    -0.04900
C790        C  0.33891228  0.21326167  0.09334532    -0.23300
C791        C  0.34246666  0.20424469  0.11539569     0.13000
C792        C  0.32390876  0.20201892  0.13036173    -0.12500
N793        N  0.27614462  0.22363471  0.09389857     0.64700
H794        H  0.31400197  0.22787286  0.07067339     0.12500
N795        N  0.36422097  0.19587962  0.12240608     0.61300
H796        H  0.32655963  0.19458939  0.14704111     0.08700
O797        O  0.23058081  0.25085663  0.14982672    -0.40100
O798        O  0.22537684  0.23608451  0.18341139    -0.39300
O799        O  0.29391849  0.14474950  0.15238174    -0.39300
O800        O  0.29769673  0.15950840  0.11863677    -0.37000
O801        O  0.37164344  0.20046831  0.14203240    -0.37900
O802        O  0.37398281  0.18076371  0.11084157    -0.34100
O803        O  0.27338760  0.24171638  0.08270171    -0.35500
O804        O  0.25986135  0.20963961  0.09543292    -0.39800
C805        C  0.36406623  0.20444372  0.97154725    -0.13500
C806        C  0.34131244  0.19840638  0.96799618     0.16900
C807        C  0.32616211  0.19745162  0.98657324     0.03200
C808        C  0.33430949  0.20263422  0.00838965    -0.12000
C809        C  0.35726275  0.20855668  0.01221139    -0.03000
C810        C  0.37215652  0.20993374  0.99325432     0.02500
C811        C  0.33372842  0.19408148  0.94448094     0.09300
N812        N  0.30271299  0.19086894  0.98370919     0.65600
H813        H  0.32261759  0.20134537  0.02257348     0.18600
N814        N  0.39524255  0.21760005  0.99538256     0.76100
H815        H  0.37549625  0.20562628  0.95711228     0.10100
C816        C  0.31921569  0.20915854  0.93286377     0.03800
C817        C  0.31217457  0.20384281  0.91069581    -0.04900
C818        C  0.31939943  0.18389748  0.89978305    -0.23300
C819        C  0.33361726  0.16871687  0.91186043     0.13000
C820        C  0.34083794  0.17414020  0.93384399    -0.12500
N821        N  0.31180097  0.22998811  0.94311796     0.64700
H822        H  0.30128777  0.21567570  0.90180247     0.12500
N823        N  0.34065855  0.14756235  0.90233947     0.61300
H824        H  0.35171579  0.16241600  0.94293175     0.08700
O825        O  0.39930754  0.23749706  0.00230577    -0.40100
O826        O  0.41099818  0.20648398  0.98611807    -0.39300
O827        O  0.29724972  0.17533895  0.96992966    -0.39300
O828        O  0.28760999  0.19908359  0.99648093    -0.37000
O829        O  0.36140592  0.14432105  0.89807394    -0.37900
O830        O  0.32699093  0.13094959  0.90207356    -0.34100
O831        O  0.32548678  0.24205334  0.95450049    -0.35500
O832        O  0.29212387  0.23743256  0.93909535    -0.39800
C833        C  0.50666796  0.22470806  0.08592546    -0.13500
C834        C  0.49132115  0.23534386  0.07112093     0.16900
C835        C  0.49953506  0.25154879  0.05528055     0.03200
C836        C  0.52303013  0.25531531  0.05347421    -0.12000
C837        C  0.53859031  0.24376102  0.06734237    -0.03000
C838        C  0.53019168  0.22867281  0.08412049     0.02500
C839        C  0.46725690  0.22753928  0.07047219     0.09300
N840        N  0.48433203  0.26406112  0.04077382     0.65600
H841        H  0.52922526  0.26761603  0.04122037     0.18600
N842        N  0.54530134  0.21606186  0.09834231     0.76100
H843        H  0.50045414  0.21223574  0.09803313     0.10100
C844        C  0.45811930  0.21750219  0.05063999     0.03800
C845        C  0.43464358  0.21374646  0.04919285    -0.04900
C846        C  0.41975353  0.21961736  0.06697954    -0.23300
C847        C  0.42919306  0.22853061  0.08732817     0.13000
C848        C  0.45283888  0.23213588  0.08889168    -0.12500
N849        N  0.47233253  0.21138876  0.03168471     0.64700
H850        H  0.42800609  0.20610243  0.03379953     0.12500
N851        N  0.41517134  0.23526088  0.10603445     0.61300
H852        H  0.45984488  0.23987673  0.10409586     0.08700
O853        O  0.55824732  0.20141129  0.08969765    -0.40100
O854        O  0.54380537  0.21759902  0.11969811    -0.39300
O855        O  0.46508456  0.27014452  0.04794759    -0.39300
O856        O  0.49089116  0.27087089  0.02146704    -0.37000
O857        O  0.42015869  0.22893867  0.12593674    -0.37900
O858        O  0.40084281  0.25089977  0.10336811    -0.34100
O859        O  0.49187987  0.20328226  0.03496273    -0.35500
O860        O  0.46466464  0.21229760  0.01163555    -0.39800
C861        C  0.65661636  0.24851230  0.10991767    -0.13500
C862        C  0.64988834  0.25617127  0.13142236     0.16900
C863        C  0.62668809  0.26081669  0.13545480     0.03200
C864        C  0.61093181  0.25830343  0.11758412    -0.12000
C865        C  0.61776902  0.25117366  0.09581764    -0.03000
C866        C  0.64091512  0.24566843  0.09220288     0.02500
C867        C  0.66797019  0.26150538  0.14829356     0.09300
N868        N  0.61893681  0.26816228  0.15742503     0.65600
H869        H  0.59324496  0.26239071  0.12060874     0.18600
N870        N  0.64879228  0.23692298  0.07083557     0.76100
H871        H  0.67441254  0.24491694  0.10681724     0.10100
C872        C  0.68345232  0.24482759  0.15598591     0.03800
C873        C  0.70309290  0.25167800  0.16793838    -0.04900
C874        C  0.70756818  0.27469369  0.17218982    -0.23300
C875        C  0.69146299  0.29104235  0.16561855     0.13000
C876        C  0.67187846  0.28436148  0.15379801    -0.12500
N877        N  0.67992268  0.22114363  0.15102750     0.64700
H878        H  0.71556954  0.23911973  0.17285152     0.12500
N879        N  0.69531561  0.31462523  0.17007655     0.61300
H880        H  0.66019402  0.29725149  0.14786121     0.08700
O881        O  0.66757509  0.24359796  0.06276027    -0.40100
O882        O  0.63864756  0.22036068  0.06162975    -0.39300
O883        O  0.60254414  0.28179818  0.15900585    -0.39300
O884        O  0.62716878  0.25966817  0.17533158    -0.37000
O885        O  0.69503428  0.32186685  0.19026759    -0.37900
O886        O  0.69760414  0.32844813  0.15380216    -0.34100
O887        O  0.69670269  0.20816191  0.14834705    -0.35500
O888        O  0.66009959  0.21279008  0.15066694    -0.39800
C889        C  0.84747880  0.13816995  0.22625113    -0.13500
C890        C  0.85077006  0.15967366  0.23611500     0.16900
C891        C  0.86968931  0.16323587  0.25055178     0.03200
C892        C  0.88530740  0.14563227  0.25384120    -0.12000
C893        C  0.88291348  0.12463197  0.24271502    -0.03000
C894        C  0.86327141  0.12066595  0.22942529     0.02500
C895        C  0.83549517  0.17866382  0.22959962     0.09300
N896        N  0.87422447  0.18496683  0.26074407     0.65600
H897        H  0.90021260  0.14886305  0.26422142     0.18600
N898        N  0.85987254  0.09963231  0.21773690     0.76100
H899        H  0.83290185  0.13521816  0.21532799     0.10100
C900        C  0.83387650  0.18566482  0.20671450     0.03800
C901        C  0.82134889  0.20499685  0.20118044    -0.04900
C902        C  0.81071460  0.21810999  0.21802102    -0.23300
C903        C  0.81106866  0.21033244  0.24081546     0.13000
C904        C  0.82350391  0.19070517  0.24633670    -0.12500
N905        N  0.84640301  0.17446586  0.18913387     0.64700
H906        H  0.82126459  0.21073169  0.18363690     0.12500
N907        N  0.80025831  0.22279368  0.25868903     0.61300
H908        H  0.82440167  0.18517425  0.26391003     0.08700
O909        O  0.85933640  0.09934925  0.19627654    -0.40100
O910        O  0.85346470  0.08229577  0.22869266    -0.39300
O911        O  0.88193300  0.18604573  0.28076334    -0.39300
O912        O  0.87347112  0.20284183  0.24889635    -0.37000
O913        O  0.77915113  0.22640945  0.25783470    -0.37900
O914        O  0.81081431  0.22661823  0.27700499    -0.34100
O915        O  0.83643507  0.16814519  0.17118921    -0.35500
O916        O  0.86778134  0.17313949  0.19040297    -0.39800
C917        C  0.75641229  0.36286378  0.35241557    -0.13500
C918        C  0.74693489  0.36629072  0.33080054     0.16900
C919        C  0.73270641  0.38505517  0.32714237     0.03200
C920        C  0.72939476  0.40086886  0.34459775    -0.12000
C921        C  0.73983128  0.39818401  0.36595667    -0.03000
C922        C  0.75271131  0.37840013  0.37012028     0.02500
C923        C  0.75429426  0.35193971  0.31149181     0.09300
N924        N  0.72295051  0.38914811  0.30524945     0.65600
H925        H  0.71938232  0.41587175  0.34111597     0.18600
N926        N  0.76348238  0.37462655  0.39161798     0.76100
H927        H  0.76735928  0.34840615  0.35531826     0.10100
C928        C  0.77610578  0.35483240  0.30194721     0.03800
C929        C  0.78227761  0.34194253  0.28296471    -0.04900
C930        C  0.76714882  0.32631038  0.27285620    -0.23300
C931        C  0.74577518  0.32240613  0.28337310     0.13000
C932        C  0.73946947  0.33556512  0.30233526    -0.12500
N933        N  0.79183075  0.37147950  0.31064989     0.64700
H934        H  0.79880846  0.34501381  0.27535878     0.12500
N935        N  0.73010813  0.30569871  0.27487387     0.61300
H936        H  0.72288264  0.33302098  0.31000574     0.08700
O937        O  0.78482485  0.37279559  0.39262383    -0.40100
O938        O  0.75160755  0.36887177  0.40857720    -0.39300
O939        O  0.70185840  0.38649378  0.30225459    -0.39300
O940        O  0.73516350  0.39667555  0.28924598    -0.37000
O941        O  0.73583276  0.28508950  0.27442581    -0.37900
O942        O  0.70939967  0.31066624  0.27247959    -0.34100
O943        O  0.81275253  0.36698889  0.31183852    -0.35500
O944        O  0.78534081  0.39144891  0.31474080    -0.39800
C945        C  0.12152808  0.18700725  0.02519310    -0.13500
C946        C  0.10643535  0.19331435  0.04244499     0.16900
C947        C  0.08456199  0.20125025  0.03659390     0.03200
C948        C  0.07842267  0.20260840  0.01350226    -0.12000
C949        C  0.09360760  0.19647123  0.99607938    -0.03000
C950        C  0.11530156  0.18802718  0.00218809     0.02500
C951        C  0.11377100  0.19022291  0.06639691     0.09300
N952        N  0.06860581  0.20833591  0.05370069     0.65600
H953        H  0.06186216  0.20926416  0.00912386     0.18600
N954        N  0.13078929  0.17932389  0.98551094     0.76100
H955        H  0.13805068  0.18034658  0.02976574     0.10100
C956        C  0.10389713  0.17359016  0.08074624     0.03800
C957        C  0.11197465  0.17124158  0.10313338    -0.04900
C958        C  0.12975102  0.18496719  0.11161351    -0.23300
C959        C  0.13899084  0.20205676  0.09726404     0.13000
C960        C  0.13117396  0.20420574  0.07484651    -0.12500
N961        N  0.08613310  0.15864952  0.07281106     0.64700
H962        H  0.10458688  0.15814750  0.11384286     0.12500
N963        N  0.15637558  0.21733329  0.10497814     0.61300
H964        H  0.13857566  0.21716267  0.06395298     0.08700
O965        O  0.15182395  0.18335638  0.98729356    -0.40100
O966        O  0.12407495  0.16453897  0.97145453    -0.39300
O967        O  0.07536285  0.21852093  0.07136257    -0.39300
O968        O  0.04750233  0.20621868  0.05028063    -0.37000
O969        O  0.15131095  0.23313967  0.11850026    -0.37900
O970        O  0.17533625  0.21788598  0.09494363    -0.34100
O971        O  0.08669675  0.15060939  0.05292426    -0.35500
O972        O  0.07092412  0.15176008  0.08636347    -0.39800
C973        C  0.17666691  0.17838430  0.86380621    -0.13500
C974        C  0.17179335  0.20088499  0.86982840     0.16900
C975        C  0.18754495  0.21823480  0.86393867     0.03200
C976        C  0.20800496  0.21243308  0.85300842    -0.12000
C977        C  0.21307647  0.18982590  0.84733900    -0.03000
C978        C  0.19697568  0.17263567  0.85276824     0.02500
C979        C  0.15150863  0.20524308  0.88448517     0.09300
N980        N  0.18301328  0.24173490  0.86872939     0.65600
H981        H  0.22001503  0.22578064  0.84869112     0.18600
N982        N  0.20149252  0.14908421  0.84870973     0.76100
H983        H  0.16505193  0.16491242  0.86879570     0.10100
C984        C  0.12946364  0.19724413  0.87873276     0.03800
C985        C  0.11170780  0.19909571  0.89467879    -0.04900
C986        C  0.11524522  0.20906267  0.91609037    -0.23300
C987        C  0.13694724  0.21831122  0.92125225     0.13000
C988        C  0.15482936  0.21579783  0.90564746    -0.12500
N989        N  0.12485831  0.18706338  0.85696618     0.64700
H990        H  0.09510956  0.19217803  0.89053160     0.12500
N991        N  0.14104618  0.23058893  0.94201563     0.61300
H992        H  0.17160738  0.22204031  0.91012499     0.08700
O993        O  0.18637960  0.13666453  0.83976542    -0.40100
O994        O  0.21861570  0.13989502  0.85772238    -0.39300
O995        O  0.19919740  0.25534708  0.87274000    -0.39300
O996        O  0.16309867  0.24941833  0.86699576    -0.37000
O997        O  0.12660638  0.24464311  0.94917497    -0.37900
O998        O  0.16024098  0.22968098  0.95158880    -0.34100
O999        O  0.11013760  0.17146194  0.85519761    -0.35500
O1000       O  0.13405711  0.19484915  0.83916263    -0.39800
C1001       C  0.81018449  0.27588511  0.06841399    -0.13500
C1002       C  0.83088783  0.26443866  0.06620860     0.16900
C1003       C  0.84352086  0.25904263  0.08589406     0.03200
C1004       C  0.83530754  0.26572572  0.10724922    -0.12000
C1005       C  0.81467424  0.27752687  0.10960739    -0.03000
C1006       C  0.80201164  0.28258657  0.08973956     0.02500
C1007       C  0.83993595  0.26033525  0.04305064     0.09300
N1008       N  0.86447532  0.24661179  0.08455864     0.65600
H1009       H  0.84514192  0.26138733  0.12220632     0.18600
N1010       N  0.78121780  0.29504896  0.09065051     0.76100
H1011       H  0.80065676  0.28040459  0.05328714     0.10100
C1012       C  0.82784526  0.24730973  0.02684542     0.03800
C1013       C  0.83619500  0.24594065  0.00453876    -0.04900
C1014       C  0.85629459  0.25718840  0.99798436    -0.23300
C1015       C  0.86812651  0.27048144  0.01415450     0.13000
C1016       C  0.86002187  0.27156094  0.03655890    -0.12500
N1017       N  0.80733537  0.23523083  0.03276614     0.64700
H1018       H  0.82711305  0.23558229  0.99226423     0.12500
N1019       N  0.88692388  0.28469003  0.00766328     0.61300
H1020       H  0.86877444  0.28228629  0.04878405     0.08700
O1021       O  0.76332992  0.28653998  0.08228429    -0.40100
O1022       O  0.78173718  0.31594237  0.09538798    -0.39300
O1023       O  0.87995095  0.24988393  0.09910753    -0.39300
O1024       O  0.86679678  0.23087350  0.07020309    -0.37000
O1025       O  0.88509353  0.29743280  0.99048915    -0.37900
O1026       O  0.90313842  0.28800492  0.02137259    -0.34100
O1027       O  0.79175223  0.23259501  0.01820658    -0.35500
O1028       O  0.80547670  0.22552730  0.05184707    -0.39800
C1029       C  0.99393138  0.20190469  0.94814185    -0.13500
C1030       C  0.98738690  0.22045482  0.93476566     0.16900
C1031       C  0.00410582  0.23257797  0.92229038     0.03200
C1032       C  0.02706063  0.22616124  0.92410336    -0.12000
C1033       C  0.03377887  0.20849772  0.93867026    -0.03000
C1034       C  0.01684927  0.19565455  0.95012571     0.02500
C1035       C  0.96337871  0.22801827  0.93606028     0.09300
N1036       N  0.99829006  0.25177331  0.90834356     0.65600
H1037       H  0.03992214  0.23612932  0.91535609     0.18600
N1038       N  0.02263217  0.17625042  0.96376098     0.76100
H1039       H  0.98106334  0.19244866  0.95743954     0.10100
C1040       C  0.94606871  0.22003803  0.92128945     0.03800
C1041       C  0.92340633  0.22700158  0.92493448    -0.04900
C1042       C  0.91769908  0.24181544  0.94280159    -0.23300
C1043       C  0.93536951  0.25002911  0.95702021     0.13000
C1044       C  0.95771757  0.24276234  0.95374500    -0.12500
N1045       N  0.95099927  0.20460345  0.90300516     0.64700
H1046       H  0.91007638  0.22051684  0.91394469     0.12500
N1047       N  0.93122590  0.26673807  0.97411759     0.61300
H1048       H  0.97100471  0.24906005  0.96493054     0.08700
O1049       O  0.01174935  0.17195143  0.98178542    -0.40100
O1050       O  0.03705527  0.16213422  0.95669358    -0.39300
O1051       O  0.98410056  0.26622489  0.91517324    -0.39300
O1052       O  0.00903879  0.25556577  0.89013000    -0.37000
O1053       O  0.92416784  0.28603521  0.96818949    -0.37900
O1054       O  0.93925469  0.26410822  0.99386120    -0.34100
O1055       O  0.93612581  0.19051064  0.89643512    -0.35500
O1056       O  0.96951265  0.20603058  0.89222895    -0.39800
C1057       C  0.78602926  0.55496372  0.35536004    -0.13500
C1058       C  0.76325146  0.54776170  0.35549395     0.16900
C1059       C  0.74612642  0.56314226  0.34894864     0.03200
C1060       C  0.75217545  0.58531821  0.34252296    -0.12000
C1061       C  0.77503070  0.59252686  0.34187376    -0.03000
C1062       C  0.79217156  0.57693151  0.34826272     0.02500
C1063       C  0.75761375  0.52434896  0.36322333     0.09300
N1064       N  0.72262046  0.55638226  0.34821681     0.65600
H1065       H  0.73880572  0.59692231  0.33760785     0.18600
N1066       N  0.81586447  0.58267767  0.34688467     0.76100
H1067       H  0.79922385  0.54318873  0.36037699     0.10100
C1068       C  0.76616487  0.50495340  0.35205141     0.03800
C1069       C  0.76066967  0.48327120  0.36047693    -0.04900
C1070       C  0.74661687  0.48037560  0.37961683    -0.23300
C1071       C  0.73782744  0.49986048  0.39056799     0.13000
C1072       C  0.74372107  0.52152369  0.38241905    -0.12500
N1073       N  0.78015500  0.50691163  0.33207340     0.64700
H1074       H  0.76753295  0.46848781  0.35199111     0.12500
N1075       N  0.72233907  0.49805978  0.40939532     0.61300
H1076       H  0.73707370  0.53640311  0.39092586     0.08700
O1077       O  0.82444693  0.58825207  0.32798476    -0.40100
O1078       O  0.82885340  0.57836081  0.36341262    -0.39300
O1079       O  0.70737859  0.56992566  0.35464605    -0.39300
O1080       O  0.71686543  0.53778277  0.33917097    -0.37000
O1081       O  0.72352742  0.51209263  0.42557647    -0.37900
O1082       O  0.70546737  0.48473869  0.40830347    -0.34100
O1083       O  0.79610606  0.49306324  0.32877400    -0.35500
O1084       O  0.77534586  0.52104584  0.31666790    -0.39800
C1085       C  0.83062036  0.79321900  0.29194625    -0.13500
C1086       C  0.84138501  0.79429799  0.27067761     0.16900
C1087       C  0.83868373  0.77596255  0.25535630     0.03200
C1088       C  0.82682561  0.75640972  0.26245642    -0.12000
C1089       C  0.81703330  0.75474658  0.28427254    -0.03000
C1090       C  0.81809739  0.77400074  0.29870648     0.02500
C1091       C  0.85791734  0.81308958  0.26630142     0.09300
N1092       N  0.84819248  0.77675082  0.23278767     0.65600
H1093       H  0.82562315  0.74216518  0.25086578     0.18600
N1094       N  0.80718925  0.77424253  0.32049847     0.76100
H1095       H  0.83250613  0.80724609  0.30373703     0.10100
C1096       C  0.85226710  0.83630317  0.26875446     0.03800
C1097       C  0.86965562  0.85287109  0.26768021    -0.04900
C1098       C  0.89241291  0.84690919  0.26355206    -0.23300
C1099       C  0.89750451  0.82379854  0.25949584     0.13000
C1100       C  0.88047708  0.80726828  0.26156122    -0.12500
N1101       N  0.82913564  0.84330200  0.27225781     0.64700
H1102       H  0.86538603  0.87052081  0.27039556     0.12500
N1103       N  0.91969433  0.81681304  0.25251218     0.61300
H1104       H  0.88496284  0.78957223  0.25944924     0.08700
O1105       O  0.78581036  0.77260210  0.32167351    -0.40100
O1106       O  0.81824599  0.78027116  0.33790705    -0.39300
O1107       O  0.85445243  0.75872348  0.22309834    -0.39300
O1108       O  0.84874388  0.79515690  0.22175791    -0.37000
O1109       O  0.92765377  0.82399365  0.23389916    -0.37900
O1110       O  0.92939760  0.80059463  0.26257381    -0.34100
O1111       O  0.82491928  0.86114759  0.28331100    -0.35500
O1112       O  0.81297551  0.83293742  0.26255303    -0.39800
C1113       C  0.08356262  0.30646796  0.24289338    -0.13500
C1114       C  0.10414896  0.31173822  0.23197848     0.16900
C1115       C  0.10781859  0.33408305  0.22374344     0.03200
C1116       C  0.09041846  0.35024358  0.22595918    -0.12000
C1117       C  0.06959392  0.34467054  0.23629502    -0.03000
C1118       C  0.06644425  0.32266968  0.24552546     0.02500
C1119       C  0.12004354  0.29274340  0.22718789     0.09300
N1120       N  0.12886926  0.34054488  0.21299257     0.65600
H1121       H  0.09294104  0.36717119  0.21909210     0.18600
N1122       N  0.04616813  0.31657485  0.25785036     0.76100
H1123       H  0.08067083  0.28938291  0.24921783     0.10100
C1124       C  0.12722220  0.27763656  0.24448097     0.03800
C1125       C  0.13724403  0.25690313  0.23835204    -0.04900
C1126       C  0.14076195  0.25104421  0.21544001    -0.23300
C1127       C  0.13502576  0.26701882  0.19834987     0.13000
C1128       C  0.12483854  0.28756344  0.20442617    -0.12500
N1129       N  0.12420602  0.28297865  0.26818729     0.64700
H1130       H  0.14215867  0.24511576  0.25162497     0.12500
N1131       N  0.13753331  0.26200222  0.17464557     0.61300
H1132       H  0.11909216  0.29886452  0.19104904     0.08700
O1133       O  0.03816813  0.29667367  0.25651590    -0.40100
O1134       O  0.03787847  0.33009484  0.27223427    -0.39300
O1135       O  0.12909538  0.35554612  0.19762545    -0.39300
O1136       O  0.14750866  0.33263066  0.21998174    -0.37000
O1137       O  0.14817244  0.27570607  0.16193474    -0.37900
O1138       O  0.12560036  0.24648521  0.16575048    -0.34100
O1139       O  0.12202609  0.26729371  0.28270536    -0.35500
O1140       O  0.12558373  0.30327093  0.27497542    -0.39800
C1141       C  0.94842175  0.36646825  0.21629487    -0.13500
C1142       C  0.94296413  0.34382513  0.22132026     0.16900
C1143       C  0.96030640  0.32886618  0.22839850     0.03200
C1144       C  0.98265927  0.33721315  0.23058119    -0.12000
C1145       C  0.98811441  0.36006801  0.22599702    -0.03000
C1146       C  0.97074539  0.37469115  0.21817553     0.02500
C1147       C  0.91917925  0.33615572  0.21773107     0.09300
N1148       N  0.95550521  0.30550251  0.23402049     0.65600
H1149       H  0.99577347  0.32588724  0.23673642     0.18600
N1150       N  0.97555959  0.39754493  0.21104813     0.76100
H1151       H  0.93520982  0.37771016  0.21014862     0.10100
C1152       C  0.90106534  0.34499396  0.23071388     0.03800
C1153       C  0.87862486  0.33895313  0.22506783    -0.04900
C1154       C  0.87380304  0.32408941  0.20698791    -0.23300
C1155       C  0.89205794  0.31543336  0.19392453     0.13000
C1156       C  0.91447450  0.32137018  0.19965799    -0.12500
N1157       N  0.90515919  0.35969127  0.24985460     0.64700
H1158       H  0.86481369  0.34542551  0.23534859     0.12500
N1159       N  0.88820002  0.30166640  0.17412381     0.61300
H1160       H  0.92837675  0.31513610  0.18932856     0.08700
O1161       O  0.96216673  0.41335506  0.21629350    -0.40100
O1162       O  0.99107928  0.40135815  0.19668040    -0.39300
O1163       O  0.97071709  0.29064988  0.23176309    -0.39300
O1164       O  0.93688054  0.29991391  0.24319138    -0.37000
O1165       O  0.87464158  0.30825366  0.15885628    -0.37900
O1166       O  0.90088601  0.28492661  0.17016424    -0.34100
O1167       O  0.89070329  0.37447262  0.25528940    -0.35500
O1168       O  0.92210046  0.35659713  0.26266203    -0.39800
C1169       C  0.11086446  0.68381929  0.30544881    -0.13500
C1170       C  0.11519265  0.67514651  0.28371633     0.16900
C1171       C  0.13074085  0.68669883  0.26933782     0.03200
C1172       C  0.14106553  0.70700142  0.27692409    -0.12000
C1173       C  0.13629198  0.71597930  0.29854775    -0.03000
C1174       C  0.12134107  0.70381735  0.31306608     0.02500
C1175       C  0.10128808  0.65546841  0.27582514     0.09300
N1176       N  0.13607826  0.67816345  0.24707657     0.65600
H1177       H  0.15255770  0.71607265  0.26567867     0.18600
N1178       N  0.11681762  0.71136038  0.33575061     0.76100
H1179       H  0.09896016  0.67507199  0.31654584     0.10100
C1180       C  0.10134847  0.63435270  0.28736391     0.03800
C1181       C  0.08493702  0.61780098  0.28170681    -0.04900
C1182       C  0.06849677  0.62185108  0.26489844    -0.23300
C1183       C  0.06924652  0.64247798  0.25251716     0.13000
C1184       C  0.08556672  0.65903479  0.25825586    -0.12500
N1185       N  0.11752828  0.62969371  0.30511299     0.64700
H1186       H  0.08440110  0.60198567  0.29113925     0.12500
N1187       N  0.05356282  0.64692482  0.23424969     0.61300
H1188       H  0.08562627  0.67517413  0.24937707     0.08700
O1189       O  0.09657708  0.71373515  0.34242480    -0.40100
O1190       O  0.13291139  0.71315955  0.34985307    -0.39300
O1191       O  0.14047506  0.69173523  0.23100181    -0.39300
O1192       O  0.13809611  0.65709666  0.24377994    -0.37000
O1193       O  0.04798753  0.66705550  0.22953946    -0.37900
O1194       O  0.04711826  0.63108873  0.22125476    -0.34100
O1195       O  0.11219947  0.61681058  0.32147895    -0.35500
O1196       O  0.13770185  0.63701477  0.30366936    -0.39800
C1197       C  0.95753376  0.63913748  0.26865697    -0.13500
C1198       C  0.93978047  0.62321646  0.26978508     0.16900
C1199       C  0.94464268  0.59988806  0.26750599     0.03200
C1200       C  0.96735080  0.59306801  0.26525623    -0.12000
C1201       C  0.98548542  0.60886175  0.26512349    -0.03000
C1202       C  0.98024815  0.63231234  0.26664581     0.02500
C1203       C  0.91678570  0.63117692  0.27611774     0.09300
N1204       N  0.92684867  0.58295588  0.26773262     0.65600
H1205       H  0.97077316  0.57509963  0.26366006     0.18600
N1206       N  0.99758421  0.64948610  0.26712559     0.76100
H1207       H  0.95380829  0.65703370  0.27062437     0.10100
C1208       C  0.90715952  0.62574412  0.29748277     0.03800
C1209       C  0.88512853  0.63313816  0.30257103    -0.04900
C1210       C  0.87243408  0.64617520  0.28706992    -0.23300
C1211       C  0.88218451  0.65132288  0.26562635     0.13000
C1212       C  0.90420453  0.64393165  0.26045541    -0.12500
N1213       N  0.91956643  0.61307985  0.31431389     0.64700
H1214       H  0.87809826  0.62901415  0.31911108     0.12500
N1215       N  0.86996607  0.66379585  0.24877778     0.61300
H1216       H  0.91145774  0.64794648  0.24396740     0.08700
O1217       O  0.00960579  0.65186108  0.28476884    -0.40100
O1218       O  0.99724110  0.66525842  0.25257519    -0.39300
O1219       O  0.90766387  0.58709236  0.25908291    -0.39300
O1220       O  0.93081725  0.56316396  0.27492768    -0.37000
O1221       O  0.87278886  0.68498741  0.24711416    -0.37900
O1222       O  0.85875762  0.65331714  0.23374021    -0.34100
O1223       O  0.94045708  0.61690647  0.31759715    -0.35500
O1224       O  0.90918892  0.59961091  0.32749378    -0.39800
C1225       C  0.05887382  0.50852320  0.25640575    -0.13500
C1226       C  0.03928582  0.49571071  0.25133497     0.16900
C1227       C  0.01820404  0.50695559  0.24944083     0.03200
C1228       C  0.01720709  0.53043289  0.25305464    -0.12000
C1229       C  0.03674691  0.54347502  0.25807234    -0.03000
C1230       C  0.05788398  0.53214900  0.25974627     0.02500
C1231       C  0.04070250  0.47048131  0.24961374     0.09300
N1232       N  0.99769780  0.49494030  0.24338975     0.65600
H1233       H  0.00085909  0.53860107  0.25123819     0.18600
N1234       N  0.07840105  0.54405474  0.26545219     0.76100
H1235       H  0.07503535  0.49998862  0.25834650     0.10100
C1236       C  0.05563588  0.45941587  0.23435920     0.03800
C1237       C  0.05537838  0.43553075  0.23313484    -0.04900
C1238       C  0.03998865  0.42256895  0.24605228    -0.23300
C1239       C  0.02567848  0.43355357  0.26183522     0.13000
C1240       C  0.02646380  0.45727491  0.26360744    -0.12500
N1241       N  0.07007680  0.47201741  0.21907964     0.64700
H1242       H  0.06606395  0.42710147  0.22077232     0.12500
N1243       N  0.01025823  0.42091590  0.27612060     0.61300
H1244       H  0.01557112  0.46560943  0.27585382     0.08700
O1245       O  0.09566505  0.54221176  0.25285889    -0.40100
O1246       O  0.08052657  0.55291348  0.28488228    -0.39300
O1247       O  0.97893364  0.50053220  0.25209994    -0.39300
O1248       O  0.99787594  0.48025821  0.22776399    -0.37000
O1249       O  0.01621366  0.40224790  0.28478081    -0.37900
O1250       O  0.99134377  0.42927142  0.28166753    -0.34100
O1251       O  0.08916475  0.46417109  0.21338158    -0.35500
O1252       O  0.06276278  0.48950786  0.20910793    -0.39800
C1253       C  0.25766597  0.90359957  0.63571830    -0.13500
C1254       C  0.26435133  0.92222909  0.64902408     0.16900
C1255       C  0.27475686  0.91832198  0.67037096     0.03200
C1256       C  0.27823588  0.89592376  0.67770943    -0.12000
C1257       C  0.27210161  0.87718625  0.66413145    -0.03000
C1258       C  0.26155931  0.88129899  0.64287307     0.02500
C1259       C  0.25936054  0.94550160  0.64064653     0.09300
N1260       N  0.28250618  0.93675287  0.68448222     0.65600
H1261       H  0.28648441  0.89321174  0.69397518     0.18600
N1262       N  0.25493273  0.86315938  0.62810279     0.76100
H1263       H  0.24925769  0.90640674  0.61953289     0.10100
C1264       C  0.26625603  0.95296165  0.61879317     0.03800
C1265       C  0.26001896  0.97467126  0.61130462    -0.04900
C1266       C  0.24775282  0.98946635  0.62532604    -0.23300
C1267       C  0.24059709  0.98187576  0.64705993     0.13000
C1268       C  0.24640958  0.95999560  0.65434972    -0.12500
N1269       N  0.28029880  0.93917766  0.60439296     0.64700
H1270       H  0.26589734  0.98050885  0.59480253     0.12500
N1271       N  0.22690556  0.99577982  0.66164367     0.61300
H1272       H  0.24044265  0.95405104  0.67078726     0.08700
O1273       O  0.26509197  0.86055524  0.60939331    -0.40100
O1274       O  0.23654447  0.85260333  0.63171895    -0.39300
O1275       O  0.28140600  0.93511791  0.70587506    -0.39300
O1276       O  0.29258228  0.95365699  0.67579745    -0.37000
O1277       O  0.23009670  0.99556065  0.68288615    -0.37900
O1278       O  0.20985040  0.00603394  0.65373818    -0.34100
O1279       O  0.27793574  0.93993713  0.58305569    -0.35500
O1280       O  0.29665736  0.92813044  0.61268894    -0.39800
C1281       C  0.33078134  0.68831662  0.74725878    -0.13500
C1282       C  0.33988310  0.67458464  0.72999979     0.16900
C1283       C  0.33673490  0.68094539  0.70704222     0.03200
C1284       C  0.32591741  0.70143729  0.70190660    -0.12000
C1285       C  0.31762839  0.71566204  0.71909735    -0.03000
C1286       C  0.31948668  0.70864423  0.74197415     0.02500
C1287       C  0.35624356  0.65636354  0.73592393     0.09300
N1288       N  0.34603632  0.66775946  0.68882709     0.65600
H1289       H  0.32451060  0.70662048  0.68425711     0.18600
N1290       N  0.31203614  0.72299834  0.76003145     0.76100
H1291       H  0.33350291  0.68381157  0.76493103     0.10100
C1292       C  0.37848104  0.66179014  0.74332177     0.03800
C1293       C  0.39452740  0.64443708  0.74557670    -0.04900
C1294       C  0.38938496  0.62176093  0.73987005    -0.23300
C1295       C  0.36669357  0.61622935  0.73375347     0.13000
C1296       C  0.35033015  0.63350851  0.73237298    -0.12500
N1297       N  0.38541166  0.68483692  0.74778758     0.64700
H1298       H  0.41159761  0.64901638  0.75084411     0.12500
N1299       N  0.36020568  0.59364183  0.72734239     0.61300
H1300       H  0.33318384  0.62923753  0.72706176     0.08700
O1301       O  0.32641107  0.73395135  0.77166788    -0.40100
O1302       O  0.29139864  0.72288861  0.76587991    -0.39300
O1303       O  0.33955221  0.64750640  0.68592973    -0.39300
O1304       O  0.35778364  0.67733912  0.67357591    -0.37000
O1305       O  0.36867589  0.58483437  0.70973858    -0.37900
O1306       O  0.34302312  0.58443125  0.73642715    -0.34100
O1307       O  0.39899668  0.68907229  0.76389153    -0.35500
O1308       O  0.38031675  0.70056727  0.73413642    -0.39800
C1309       C  0.24885101  0.83091771  0.80667982    -0.13500
C1310       C  0.26448702  0.84648802  0.81595526     0.16900
C1311       C  0.28581551  0.84952771  0.80529225     0.03200
C1312       C  0.29056609  0.83765228  0.78517962    -0.12000
C1313       C  0.27445136  0.82310134  0.77497866    -0.03000
C1314       C  0.25347851  0.81931189  0.78625997     0.02500
C1315       C  0.25770652  0.86081825  0.83561979     0.09300
N1316       N  0.30240992  0.86537048  0.81393602     0.65600
H1317       H  0.30676077  0.84062563  0.77684733     0.18600
N1318       N  0.23613478  0.80502063  0.77664992     0.76100
H1319       H  0.23243833  0.82864984  0.81479298     0.10100
C1320       C  0.24241143  0.87901399  0.83275680     0.03800
C1321       C  0.23853981  0.89397126  0.85090112    -0.04900
C1322       C  0.24969473  0.89141387  0.87187911    -0.23300
C1323       C  0.26398273  0.87250798  0.87507362     0.13000
C1324       C  0.26790848  0.85744886  0.85697131    -0.12500
N1325       N  0.23163850  0.88331617  0.81125298     0.64700
H1326       H  0.22748241  0.90838992  0.84823845     0.12500
N1327       N  0.27599530  0.86936572  0.89595715     0.61300
H1328       H  0.27970027  0.84356838  0.85929857     0.08700
O1329       O  0.22905096  0.80865277  0.75670744    -0.40100
O1330       O  0.22535052  0.79131277  0.78923882    -0.39300
O1331       O  0.32331530  0.86078774  0.81279305    -0.39300
O1332       O  0.29653182  0.88496611  0.82019788    -0.37000
O1333       O  0.26904009  0.85486252  0.91020285    -0.37900
O1334       O  0.29474550  0.87939968  0.89915857    -0.34100
O1335       O  0.21113233  0.88947550  0.81062457    -0.35500
O1336       O  0.24319473  0.88366982  0.79316101    -0.39800
C1337       C  0.63705553  0.29323636  0.94134667    -0.13500
C1338       C  0.62713620  0.27200427  0.94600508     0.16900
C1339       C  0.62326960  0.25661432  0.92791471     0.03200
C1340       C  0.62885525  0.26317758  0.90560569    -0.12000
C1341       C  0.63878951  0.28442605  0.90092370    -0.03000
C1342       C  0.64288955  0.29967165  0.91910843     0.02500
C1343       C  0.61903726  0.26723235  0.96951302     0.09300
N1344       N  0.61427675  0.23416743  0.93192445     0.65600
H1345       H  0.62612829  0.25124553  0.89183143     0.18600
N1346       N  0.65185370  0.32210236  0.91527252     0.76100
H1347       H  0.63948533  0.30528819  0.95507864     0.10100
C1348       C  0.63361783  0.26860377  0.98858758     0.03800
C1349       C  0.62459460  0.26545808  0.01050783    -0.04900
C1350       C  0.60133730  0.26068901  0.01402441    -0.23300
C1351       C  0.58689032  0.25952231  0.99473542     0.13000
C1352       C  0.59584741  0.26278935  0.97291159    -0.12500
N1353       N  0.65761254  0.27267208  0.98601941     0.64700
H1354       H  0.63609381  0.26631584  0.02489074     0.12500
N1355       N  0.56301016  0.25538414  0.99680594     0.61300
H1356       H  0.58443835  0.26223427  0.95841533     0.08700
O1357       O  0.66622204  0.33045255  0.92891486    -0.40100
O1358       O  0.64309113  0.33474485  0.90033353    -0.39300
O1359       O  0.60251262  0.22435223  0.91684413    -0.39300
O1360       O  0.61996619  0.22316040  0.94944979    -0.37000
O1361       O  0.54991000  0.27174669  0.00092420    -0.37900
O1362       O  0.55473199  0.23677367  0.99000313    -0.34100
O1363       O  0.66822798  0.28452070  0.00047374    -0.35500
O1364       O  0.66864124  0.26283740  0.97051631    -0.39800
C1365       C  0.55278488  0.33961981  0.76909039    -0.13500
C1366       C  0.53477895  0.33488902  0.78406254     0.16900
C1367       C  0.53924737  0.32244511  0.80420869     0.03200
C1368       C  0.56155805  0.31538146  0.80889092    -0.12000
C1369       C  0.57973018  0.32108715  0.79442302    -0.03000
C1370       C  0.57510996  0.33308551  0.77405583     0.02500
C1371       C  0.51149044  0.34278825  0.77800834     0.09300
N1372       N  0.52167691  0.31774539  0.82057965     0.65600
H1373       H  0.56491931  0.30642112  0.82465589     0.18600
N1374       N  0.59273069  0.33843406  0.75800062     0.76100
H1375       H  0.54941978  0.34847256  0.75325767     0.10100
C1376       C  0.50718698  0.36567636  0.77220410     0.03800
C1377       C  0.48511505  0.37216373  0.76609135    -0.04900
C1378       C  0.46672142  0.35671518  0.76639429    -0.23300
C1379       C  0.47115160  0.33379282  0.77232013     0.13000
C1380       C  0.49344027  0.32707599  0.77742854    -0.12500
N1381       N  0.52478373  0.38272680  0.77307081     0.64700
H1382       H  0.48229421  0.38981938  0.76177724     0.12500
N1383       N  0.45334950  0.31716716  0.77397244     0.61300
H1384       H  0.49660024  0.30942131  0.78157534     0.08700
O1385       O  0.59400172  0.35807530  0.74944740    -0.40100
O1386       O  0.60528660  0.32292431  0.75033085    -0.39300
O1387       O  0.52155456  0.29917607  0.83133686    -0.39300
O1388       O  0.50781600  0.33301836  0.82619677    -0.37000
O1389       O  0.43942017  0.31815516  0.79026922    -0.37900
O1390       O  0.45461640  0.29910733  0.76252808    -0.34100
O1391       O  0.52537336  0.39838412  0.75838277    -0.35500
O1392       O  0.53821378  0.38365877  0.78980855    -0.39800
C1393       C  0.71776869  0.34157594  0.71075863    -0.13500
C1394       C  0.70034149  0.34977072  0.69670693     0.16900
C1395       C  0.67758560  0.34485474  0.70218465     0.03200
C1396       C  0.67247286  0.33314903  0.72225201    -0.12000
C1397       C  0.68976178  0.32580907  0.73699120    -0.03000
C1398       C  0.71272646  0.32929250  0.73069715     0.02500
C1399       C  0.70568680  0.36630154  0.67845963     0.09300
N1400       N  0.65946149  0.35360293  0.68863360     0.65600
H1401       H  0.65478024  0.33072197  0.72691667     0.18600
N1402       N  0.73096931  0.32208694  0.74511171     0.76100
H1403       H  0.73532872  0.34545034  0.70660120     0.10100
C1404       C  0.71148440  0.38885123  0.68396777     0.03800
C1405       C  0.71490927  0.40469154  0.66654641    -0.04900
C1406       C  0.71214296  0.39884380  0.64345242    -0.23300
C1407       C  0.70753000  0.37581638  0.63799034     0.13000
C1408       C  0.70404950  0.35990418  0.65554880    -0.12500
N1409       N  0.71277114  0.39623658  0.70719694     0.64700
H1410       H  0.71875667  0.42204927  0.67134346     0.12500
N1411       N  0.70610680  0.36825101  0.61490779     0.61300
H1412       H  0.69993468  0.34245178  0.65130117     0.11500
O1413       O  0.74659338  0.33589287  0.75041645    -0.40100
O1414       O  0.73345588  0.30125600  0.74942310    -0.39300
O1415       O  0.65137239  0.34191999  0.67254498    -0.39300
O1416       O  0.65085297  0.37258130  0.69336957    -0.37000
O1417       O  0.72389787  0.36761314  0.60293100    -0.37900
O1418       O  0.68841036  0.35813233  0.60805627    -0.34100
O1419       O  0.72930430  0.40834883  0.71372560    -0.35500
O1420       O  0.69614580  0.39307111  0.72043187    -0.39800
C1421       C  0.77763639  0.29269744  0.86917548    -0.13500
C1422       C  0.78480234  0.27007972  0.86876307     0.16900
C1423       C  0.77301492  0.25425242  0.85494684     0.03200
C1424       C  0.75392212  0.26138858  0.84237745    -0.12000
C1425       C  0.74595006  0.28378834  0.84385239    -0.03000
C1426       C  0.75861425  0.29982080  0.85670619     0.02500
C1427       C  0.80342881  0.26332471  0.88442426     0.09300
N1428       N  0.77951699  0.23079655  0.85419733     0.65600
H1429       H  0.74427932  0.24894744  0.83274532     0.18600
N1430       N  0.75239506  0.32337046  0.85725839     0.76100
H1431       H  0.78687801  0.30489036  0.87950240     0.10100
C1432       C  0.82669115  0.26468322  0.87845279     0.03800
C1433       C  0.84339748  0.25921153  0.89478020    -0.04900
C1434       C  0.83736878  0.25269452  0.91703821    -0.23300
C1435       C  0.81392751  0.25014182  0.92233921     0.13000
C1436       C  0.79741349  0.25594929  0.90623187    -0.12500
N1437       N  0.83365990  0.27212118  0.85624039     0.64700
H1438       H  0.86118267  0.26127773  0.89038463     0.12500
N1439       N  0.80651014  0.24119406  0.94381725     0.61300
H1440       H  0.77957350  0.25440504  0.91067556     0.08700
O1441       O  0.74700066  0.33351205  0.83912267    -0.40100
O1442       O  0.75453958  0.33466742  0.87537892    -0.39300
O1443       O  0.78338697  0.22001997  0.87235062    -0.39300
O1444       O  0.77863120  0.22006190  0.83564493    -0.37000
O1445       O  0.79068447  0.25075009  0.95460480    -0.37900
O1446       O  0.81367183  0.22217521  0.95054261    -0.34100
O1447       O  0.82509909  0.28965920  0.84744759    -0.35500
O1448       O  0.85009289  0.26259014  0.84639039    -0.39800
C1449       C  0.75222718  0.45306059  0.11718350    -0.13500
C1450       C  0.75199373  0.44819094  0.14057342     0.16900
C1451       C  0.74721563  0.46572623  0.15617040     0.03200
C1452       C  0.74277857  0.48760806  0.14797477    -0.12000
C1453       C  0.74278346  0.49259684  0.12453556    -0.03000
C1454       C  0.74796028  0.47503529  0.10896136     0.02500
C1455       C  0.75821089  0.42503638  0.14836584     0.09300
N1456       N  0.74628631  0.46155460  0.18027465     0.65600
H1457       H  0.73861716  0.50073794  0.16016304     0.18600
N1458       N  0.75021364  0.47932136  0.08501330     0.76100
H1459       H  0.75660662  0.43976303  0.10524371     0.10100
C1460       C  0.74611990  0.40561305  0.14101780     0.03800
C1461       C  0.75328574  0.38403777  0.14801136    -0.04900
C1462       C  0.77205258  0.38128442  0.16259283    -0.23300
C1463       C  0.78440788  0.40081641  0.16960232     0.13000
C1464       C  0.77723528  0.42237627  0.16250391    -0.12500
N1465       N  0.72612856  0.40754063  0.12712734     0.64700
H1466       H  0.74349184  0.36932112  0.14266796     0.12500
N1467       N  0.80471239  0.39914528  0.18306700     0.61300
H1468       H  0.78694753  0.43724179  0.16760288     0.08700
O1469       O  0.74279096  0.46498380  0.07084720    -0.40100
O1470       O  0.76298885  0.49520283  0.07810681    -0.39300
O1471       O  0.75294556  0.47660963  0.19406919    -0.39300
O1472       O  0.73689233  0.44378384  0.18792315    -0.37000
O1473       O  0.82051976  0.38611750  0.17693083    -0.37900
O1474       O  0.80842490  0.41325311  0.19880982    -0.34100
O1475       O  0.72259023  0.39361050  0.11119372    -0.35500
O1476       O  0.71097061  0.42179986  0.13202039    -0.39800
C1477       C  0.74217240  0.61199393  0.15637194    -0.13500
C1478       C  0.74415328  0.60500560  0.17914462     0.16900
C1479       C  0.74151510  0.58175293  0.18458834     0.03200
C1480       C  0.73701017  0.56617609  0.16722840    -0.12000
C1481       C  0.73575784  0.57290187  0.14430153    -0.03000
C1482       C  0.73812554  0.59619678  0.13895051     0.02500
C1483       C  0.74866324  0.62197780  0.19725517     0.09300
N1484       N  0.74419577  0.57350226  0.20747481     0.65600
H1485       H  0.73517509  0.54840754  0.17176261     0.18600
N1486       N  0.73735115  0.60401568  0.11594758     0.76100
H1487       H  0.74399370  0.62983108  0.15207967     0.10100
C1488       C  0.76839517  0.63577616  0.19724704     0.03800
C1489       C  0.77336466  0.64919549  0.21635267    -0.04900
C1490       C  0.75942973  0.64863633  0.23581644    -0.23300
C1491       C  0.73870703  0.63622907  0.23487100     0.13000
C1492       C  0.73357715  0.62320670  0.21564843    -0.12500
N1493       N  0.78440603  0.63509913  0.17884990     0.64700
H1494       H  0.78923586  0.65866221  0.21660618     0.12500
N1495       N  0.72307832  0.63585660  0.25355384     0.61300
H1496       H  0.71802356  0.61319489  0.21543028     0.08700
O1497       O  0.75560518  0.60853167  0.10556585    -0.40100
O1498       O  0.71857244  0.60951536  0.10721587    -0.39300
O1499       O  0.73164201  0.55760317  0.21474153    -0.39300
O1500       O  0.76073282  0.58013172  0.21951088    -0.37000
O1501       O  0.71354952  0.65393573  0.25981770    -0.37900
O1502       O  0.71711391  0.61717688  0.26234191    -0.34100
O1503       O  0.79293873  0.65331219  0.17125896    -0.35500
O1504       O  0.79203146  0.61634011  0.17196939    -0.39800
C1505       C  0.69567076  0.61908877  0.85463007    -0.13500
C1506       C  0.68494694  0.61497358  0.83368695     0.16900
C1507       C  0.67209828  0.59490786  0.83071241     0.03200
C1508       C  0.67082750  0.57911513  0.84845133    -0.12000
C1509       C  0.68197706  0.58270883  0.86934807    -0.03000
C1510       C  0.69430289  0.60320856  0.87251015     0.02500
C1511       C  0.68861147  0.63058845  0.81423748     0.09300
N1512       N  0.66065613  0.59005237  0.80962436     0.65600
H1513       H  0.66090370  0.56378160  0.84577221     0.18600
N1514       N  0.70653161  0.60768188  0.89310707     0.76100
H1515       H  0.70578979  0.63438153  0.85681155     0.10100
C1516       C  0.67396964  0.64900117  0.81026869     0.03800
C1517       C  0.67424799  0.65973387  0.78894519    -0.04900
C1518       C  0.68878157  0.65254069  0.77131812    -0.23300
C1519       C  0.70471616  0.63522692  0.77613323     0.13000
C1520       C  0.70422967  0.62433066  0.79739569    -0.12500
N1521       N  0.65739882  0.65564282  0.82689550     0.64700
H1522       H  0.66213098  0.67316377  0.78584401     0.12500
N1523       N  0.72065768  0.62763257  0.75940451     0.61300
H1524       H  0.71548152  0.61014488  0.80047680     0.08700
O1525       O  0.70349381  0.62611756  0.90355479    -0.40100
O1526       O  0.72284323  0.59506799  0.89880577    -0.39300
O1527       O  0.66033699  0.57007213  0.80187839    -0.39300
O1528       O  0.64890886  0.60508138  0.79991493    -0.37000
O1529       O  0.73548233  0.64123001  0.75176072    -0.37900
O1530       O  0.72229200  0.60672784  0.75503967    -0.34100
O1531       O  0.66284161  0.65745957  0.84758561    -0.35500
O1532       O  0.63760438  0.66110353  0.82074282    -0.39800
C1533       C  0.66444856  0.46143387  0.88905439    -0.13500
C1534       C  0.67456903  0.45640857  0.86803837     0.16900
C1535       C  0.68413069  0.47423107  0.85493024     0.03200
C1536       C  0.68333606  0.49650073  0.86321594    -0.12000
C1537       C  0.67398878  0.50142107  0.88461333    -0.03000
C1538       C  0.66413936  0.48365703  0.89756341     0.02500
C1539       C  0.67409265  0.43260602  0.85970637     0.09300
N1540       N  0.69554465  0.46997513  0.83373539     0.65600
H1541       H  0.69127245  0.50994939  0.85334192     0.18600
N1542       N  0.65324045  0.48790073  0.91898131     0.76100
H1543       H  0.65645532  0.44793271  0.89881545     0.10100
C1544       C  0.68257139  0.41445353  0.87290917     0.03800
C1545       C  0.68108619  0.39224226  0.86444779    -0.04900
C1546       C  0.67189160  0.38758497  0.84282364    -0.23300
C1547       C  0.66368934  0.40592945  0.82958651     0.13000
C1548       C  0.66441183  0.42800167  0.83838159    -0.12500
N1549       N  0.69302410  0.41823068  0.89470842     0.64700
H1550       H  0.68749643  0.37850675  0.87487219     0.12500
N1551       N  0.65493817  0.40267651  0.80707350     0.61300
H1552       H  0.65768850  0.44181774  0.82824190     0.08700
O1553       O  0.65576686  0.47422331  0.93533043    -0.40100
O1554       O  0.63901572  0.50375138  0.92079744    -0.39300
O1555       O  0.69447670  0.48429145  0.81776733    -0.39300
O1556       O  0.70878879  0.45331027  0.83180395    -0.37000
O1557       O  0.63532576  0.40971242  0.80211576    -0.37900
O1558       O  0.66815484  0.39664484  0.79131668    -0.34100
O1559       O  0.68990408  0.40422345  0.91070372    -0.35500
O1560       O  0.70704639  0.43432141  0.89744021    -0.39800
C1561       C  0.68806180  0.57086540  0.98539278    -0.13500
C1562       C  0.70144148  0.55371338  0.99514170     0.16900
C1563       C  0.70991856  0.53622663  0.98116470     0.03200
C1564       C  0.70398666  0.53571997  0.95813294    -0.12000
C1565       C  0.69015063  0.55243888  0.94834456    -0.03000
C1566       C  0.68220692  0.57043649  0.96211878     0.02500
C1567       C  0.70465290  0.55273904  0.02022076     0.09300
N1568       N  0.72459759  0.51889158  0.99006871     0.65600
H1569       H  0.71057512  0.52218416  0.94760589     0.18600
N1570       N  0.66717972  0.58748281  0.95330730     0.76100
H1571       H  0.68126103  0.58404862  0.99621881     0.10100
C1572       C  0.71627492  0.56984772  0.03255335     0.03800
C1573       C  0.72035305  0.56664316  0.05593793    -0.04900
C1574       C  0.71349562  0.54661473  0.06712769    -0.23300
C1575       C  0.70047137  0.53032269  0.05507162     0.13000
C1576       C  0.69634240  0.53356532  0.03181796    -0.12500
N1577       N  0.72509402  0.58986494  0.02153783     0.64700
H1578       H  0.73028884  0.57922015  0.06508228     0.12500
N1579       N  0.69102402  0.51064283  0.06618547     0.61300
H1580       H  0.68667165  0.52087394  0.02253755     0.08700
O1581       O  0.66812775  0.60748639  0.96095544    -0.40100
O1582       O  0.65095081  0.58198527  0.94032923    -0.39300
O1583       O  0.72353400  0.49893169  0.98231692    -0.39300
O1584       O  0.74003826  0.52387902  0.00416689    -0.37000
O1585       O  0.68938994  0.49204341  0.05563966    -0.37900
O1586       O  0.68177094  0.51246591  0.08547019    -0.34100
O1587       O  0.72561571  0.60853882  0.03204878    -0.35500
O1588       O  0.73451927  0.58854801  0.00229769    -0.39800
C1589       C  0.29651281  0.73373054  0.40280705    -0.13500
C1590       C  0.30251546  0.74168424  0.38114097     0.16900
C1591       C  0.32570308  0.74570427  0.37605998     0.03200
C1592       C  0.34210314  0.74311270  0.39333316    -0.12000
C1593       C  0.33595844  0.73632398  0.41546178    -0.03000
C1594       C  0.31289096  0.73062662  0.41988123     0.02500
C1595       C  0.28395251  0.74874509  0.36549372     0.09300
N1596       N  0.33276610  0.75266221  0.35364985     0.65600
H1597       H  0.35971782  0.74707958  0.38961978     0.18600
N1598       N  0.30575315  0.72160954  0.44147921     0.76100
H1599       H  0.27877915  0.73037851  0.40660957     0.10100
C1600       C  0.26727250  0.73334981  0.35725998     0.03800
C1601       C  0.24802909  0.74186291  0.34583059    -0.04900
C1602       C  0.24503999  0.76528857  0.34270150    -0.23300
C1603       C  0.26223105  0.78046970  0.35006207     0.13000
C1604       C  0.28140971  0.77203167  0.36133398    -0.12500
N1605       N  0.26931177  0.70927328  0.36086528     0.64700
H1606       H  0.23479340  0.73024279  0.34029384     0.12500
N1607       N  0.26017347  0.80453513  0.34668668     0.61300
H1608       H  0.29412797  0.78384052  0.36764614     0.08700
O1609       O  0.31661127  0.70555036  0.45056195    -0.40100
O1610       O  0.28697415  0.72748061  0.44996367    -0.39300
O1611       O  0.35048361  0.76460416  0.35103755    -0.39300
O1612       O  0.32251948  0.74527183  0.33626382    -0.37000
O1613       O  0.26657941  0.81817874  0.36198328    -0.37900
O1614       O  0.25346827  0.81227297  0.32781793    -0.34100
O1615       O  0.25173776  0.69698087  0.36273448    -0.35500
O1616       O  0.28857196  0.69994248  0.36064152    -0.39800
C1617       C  0.35930123  0.75641668  0.53695022    -0.13500
C1618       C  0.33580543  0.75651043  0.54084491     0.16900
C1619       C  0.32089664  0.75291887  0.52231519     0.03200
C1620       C  0.32997293  0.74911070  0.50055827    -0.12000
C1621       C  0.35361385  0.74835309  0.49658718    -0.03000
C1622       C  0.36838178  0.75215839  0.51534041     0.02500
C1623       C  0.32740968  0.76135534  0.56423322     0.09300
N1624       N  0.29662961  0.75261734  0.52532612     0.65600
H1625       H  0.31812303  0.74619262  0.48655497     0.18600
N1626       N  0.39258289  0.75198172  0.51299882     0.76100
H1627       H  0.37091618  0.75956673  0.55112332     0.10100
C1628       C  0.33430724  0.74822146  0.58316528     0.03800
C1629       C  0.32791140  0.75493939  0.60515614    -0.04900
C1630       C  0.31442446  0.77419523  0.60884220    -0.23300
C1631       C  0.30739280  0.78719758  0.58981888     0.13000
C1632       C  0.31384820  0.78052254  0.56783639    -0.12500
N1633       N  0.34742369  0.72788565  0.58034807     0.64700
H1634       H  0.33312965  0.74464768  0.61956855     0.12500
N1635       N  0.29497111  0.80791548  0.59250070     0.61300
H1636       H  0.30902028  0.79099157  0.55339310     0.08700
O1637       O  0.40263229  0.73328340  0.51050998    -0.40100
O1638       O  0.40392647  0.76915335  0.51921789    -0.39300
O1639       O  0.28381614  0.76028041  0.50992031    -0.39300
O1640       O  0.28781881  0.74284110  0.54232927    -0.37000
O1641       O  0.30239521  0.82321005  0.60562708    -0.37900
O1642       O  0.27883039  0.81246203  0.57911878    -0.34100
O1643       O  0.36177904  0.72221172  0.59525027    -0.35500
O1644       O  0.34325483  0.71444919  0.56413395    -0.39800
C1645       C  0.62736777  0.69429072  0.52059526    -0.13500
C1646       C  0.61203351  0.69815132  0.53831773     0.16900
C1647       C  0.58893873  0.70232357  0.53326525     0.03200
C1648       C  0.58178694  0.70239751  0.51044895    -0.12000
C1649       C  0.59710738  0.69844147  0.49250913    -0.03000
C1650       C  0.62015038  0.69396756  0.49792221     0.02500
C1651       C  0.62020767  0.69545492  0.56197139     0.09300
N1652       N  0.57263356  0.70658535  0.55097657     0.65600
H1653       H  0.56413077  0.70598454  0.50674333     0.18600
N1654       N  0.63621604  0.68761688  0.48087458     0.76100
H1655       H  0.64494149  0.69041741  0.52449919     0.10100
C1656       C  0.61353625  0.67666228  0.57535685     0.03800
C1657       C  0.62122318  0.67512571  0.59786931    -0.04900
C1658       C  0.63580090  0.69166220  0.60739466    -0.23300
C1659       C  0.64224208  0.71053570  0.59383864     0.13000
C1660       C  0.63460839  0.71207412  0.57127555    -0.12500
N1661       N  0.59947215  0.65876634  0.56625277     0.64700
H1662       H  0.61615379  0.66043470  0.60779732     0.12500
N1663       N  0.65631427  0.72837700  0.60263082     0.61300
H1664       H  0.63960416  0.72659429  0.56103482     0.08700
O1665       O  0.63558285  0.66776074  0.47285055    -0.40100
O1666       O  0.65334043  0.70008330  0.47709908    -0.39300
O1667       O  0.57814291  0.71801905  0.56829695    -0.39300
O1668       O  0.55214740  0.70053495  0.54849549    -0.37000
O1669       O  0.67549375  0.73228444  0.59378527    -0.37900
O1670       O  0.64805635  0.74253252  0.61639173    -0.34100
O1671       O  0.60286075  0.65133895  0.54641320    -0.35500
O1672       O  0.58524899  0.64868146  0.57885639    -0.39800
C1673       C  0.63039691  0.71444560  0.37467654    -0.13500
C1674       C  0.65026788  0.70206128  0.37906610     0.16900
C1675       C  0.65188483  0.68926792  0.39929556     0.03200
C1676       C  0.63384692  0.68949034  0.41478246    -0.12000
C1677       C  0.61401766  0.70209537  0.41081858    -0.03000
C1678       C  0.61220810  0.71462664  0.39031976     0.02500
C1679       C  0.67007561  0.70380961  0.36351466     0.09300
N1680       N  0.67185107  0.67629474  0.40462694     0.65600
H1681       H  0.63531437  0.67943401  0.43010264     0.18600
N1682       N  0.59281266  0.72852956  0.38562883     0.76100
H1683       H  0.62936434  0.72460127  0.35933340     0.10100
C1684       C  0.67275534  0.68870112  0.34513375     0.03800
C1685       C  0.69409686  0.68700101  0.33458093    -0.04900
C1686       C  0.71292316  0.70012251  0.34172423    -0.23300
C1687       C  0.70952317  0.71659881  0.35895456     0.13000
C1688       C  0.68828475  0.71796122  0.36980409    -0.12500
N1689       N  0.65459604  0.67378545  0.33815956     0.64700
H1690       H  0.69614204  0.67465634  0.32109607     0.12500
N1691       N  0.72753055  0.73130814  0.36647112     0.61300
H1692       H  0.68619188  0.72959274  0.38392387     0.08700
O1693       O  0.58471711  0.72930153  0.36575200    -0.40100
O1694       O  0.58589662  0.74249627  0.40030709    -0.39300
O1695       O  0.67867656  0.67486085  0.42494350    -0.39300
O1696       O  0.68133092  0.66437377  0.38958604    -0.37000
O1697       O  0.73617196  0.74544808  0.35276851    -0.37900
O1698       O  0.73152027  0.73337488  0.38747200    -0.34100
O1699       O  0.63444740  0.68091960  0.33695262    -0.35500
O1700       O  0.65889399  0.65392832  0.33142339    -0.39800
C1701       C  0.49453373  0.70146378  0.45200336    -0.13500
C1702       C  0.48684151  0.71565766  0.43453242     0.16900
C1703       C  0.50244648  0.72346266  0.41788056     0.03200
C1704       C  0.52556763  0.71748106  0.41977964    -0.12000
C1705       C  0.53351160  0.70431371  0.43809008    -0.03000
C1706       C  0.51748121  0.69540573  0.45382296     0.02500
C1707       C  0.46263993  0.72275127  0.43518300     0.09300
N1708       N  0.49543727  0.73799705  0.39949748     0.65600
H1709       H  0.53764531  0.72437153  0.40764646     0.18600
N1710       N  0.52409977  0.67998290  0.47156481     0.76100
H1711       H  0.48246542  0.69503934  0.46441787     0.10100
C1712       C  0.44570103  0.71187735  0.42214192     0.03800
C1713       C  0.42270617  0.71724617  0.42562678    -0.04900
C1714       C  0.41617739  0.73361184  0.44175904    -0.23300
C1715       C  0.43341037  0.74536468  0.45402818     0.13000
C1716       C  0.45629597  0.73937643  0.45090020    -0.12500
N1717       N  0.45154494  0.69480231  0.40592439     0.64700
H1718       H  0.40983295  0.70814391  0.41600962     0.12500
N1719       N  0.42821304  0.76381210  0.46912381     0.61300
H1720       H  0.46942620  0.74791631  0.46068921     0.08700
O1721       O  0.53674745  0.66334374  0.46707631    -0.40100
O1722       O  0.51515312  0.68131457  0.49103494    -0.39300
O1723       O  0.48028769  0.75277952  0.40245438    -0.39300
O1724       O  0.50552415  0.73715057  0.38056407    -0.37000
O1725       O  0.41357044  0.77836627  0.46352452    -0.37900
O1726       O  0.44081103  0.76775171  0.48608648    -0.34100
O1727       O  0.44387660  0.67486623  0.40816680    -0.35500
O1728       O  0.46186074  0.70027361  0.38789492    -0.39800
C1729       C  0.11600109  0.76871637  0.43540669    -0.13500
C1730       C  0.12826634  0.78001362  0.45249103     0.16900
C1731       C  0.14756335  0.79313242  0.44643334     0.03200
C1732       C  0.15415994  0.79435874  0.42347899    -0.12000
C1733       C  0.14169287  0.78327290  0.40625159    -0.03000
C1734       C  0.12236166  0.77027620  0.41253830     0.02500
C1735       C  0.12129467  0.77649705  0.47656233     0.09300
N1736       N  0.16017389  0.80582561  0.46315340     0.65600
H1737       H  0.16879051  0.80474133  0.41901526     0.18600
N1738       N  0.10926248  0.75802897  0.39608283     0.76100
H1739       H  0.10147420  0.75818664  0.43994109     0.10100
C1740       C  0.09870522  0.78025286  0.48378229     0.03800
C1741       C  0.09215313  0.77356821  0.50575280    -0.04900
C1742       C  0.10761729  0.76362928  0.52104493    -0.23300
C1743       C  0.13038284  0.76077184  0.51396077     0.13000
C1744       C  0.13691153  0.76706581  0.49189493    -0.12500
N1745       N  0.08231565  0.79096846  0.46916319     0.64700
H1746       H  0.07476635  0.77655060  0.51103116     0.12500
N1747       N  0.14677314  0.75013919  0.52829144     0.61300
H1748       H  0.15418268  0.76375212  0.48639010     0.08700
O1749       O  0.08876574  0.76323096  0.39264867    -0.40100
O1750       O  0.11694434  0.73987014  0.38784538    -0.39300
O1751       O  0.18137187  0.80856959  0.46098515    -0.39300
O1752       O  0.14993820  0.81622970  0.47882848    -0.37000
O1753       O  0.14809260  0.72877414  0.52842803    -0.37900
O1754       O  0.16286138  0.76181749  0.53648898    -0.34100
O1755       O  0.06154135  0.78557379  0.47046000    -0.35500
O1756       O  0.08816174  0.80725296  0.45640596    -0.39800
C1757       C  0.15763713  0.73927741  0.61942256    -0.13500
C1758       C  0.15168978  0.75099463  0.63927936     0.16900
C1759       C  0.12946840  0.75972436  0.64142576     0.03200
C1760       C  0.11425434  0.75774138  0.62308543    -0.12000
C1761       C  0.12062093  0.74705290  0.60273795    -0.03000
C1762       C  0.14229414  0.73686325  0.60126408     0.02500
C1763       C  0.17009411  0.75713740  0.65554173     0.09300
N1764       N  0.12233679  0.77099620  0.66186370     0.65600
H1765       H  0.09752158  0.76521916  0.62446754     0.18600
N1766       N  0.14883669  0.72374798  0.58175579     0.76100
H1767       H  0.17462919  0.73243611  0.61785244     0.10100
C1768       C  0.18420607  0.74068278  0.66590783     0.03800
C1769       C  0.20438060  0.74777111  0.67685047    -0.04900
C1770       C  0.21060858  0.77079953  0.67758062    -0.23300
C1771       C  0.19561679  0.78720919  0.66866513     0.13000
C1772       C  0.17566604  0.78019906  0.65770325    -0.12500
N1773       N  0.17867482  0.71687253  0.66480987     0.64700
H1774       H  0.21589160  0.73519505  0.68369859     0.12500
N1775       N  0.20095563  0.81101482  0.66978428     0.61300
H1776       H  0.16490767  0.79285669  0.64982142     0.08700
O1777       O  0.13466411  0.71053291  0.57241888    -0.40100
O1778       O  0.16946013  0.72281826  0.57588151    -0.39300
O1779       O  0.10865858  0.78739494  0.66085424    -0.39300
O1780       O  0.12833989  0.76356334  0.68109086    -0.37000
O1781       O  0.19711485  0.82374155  0.65293566    -0.37900
O1782       O  0.20817874  0.81964626  0.68808055    -0.34100
O1783       O  0.19426231  0.70223890  0.66480412    -0.35500
O1784       O  0.15821070  0.71028250  0.66540282    -0.39800
C1785       C  0.82735972  0.71173435  0.62696977    -0.13500
C1786       C  0.80487738  0.71188710  0.61901890     0.16900
C1787       C  0.80076271  0.71523577  0.59571071     0.03200
C1788       C  0.81906315  0.71748859  0.58067285    -0.12000
C1789       C  0.84181687  0.71607952  0.58816851    -0.03000
C1790       C  0.84587930  0.71372373  0.61187295     0.02500
C1791       C  0.78570382  0.70760481  0.63489896     0.09300
N1792       N  0.77804592  0.71539142  0.58691317     0.65600
H1793       H  0.81525422  0.71969360  0.56277221     0.18600
N1794       N  0.86842325  0.71250600  0.62098655     0.76100
H1795       H  0.83053470  0.70928741  0.64496962     0.10100
C1796       C  0.78058435  0.68550508  0.64284244     0.03800
C1797       C  0.76121471  0.68201998  0.65642259    -0.04900
C1798       C  0.74644182  0.69991075  0.66180179    -0.23300
C1799       C  0.75235982  0.72225656  0.65489380     0.13000
C1800       C  0.77176506  0.72573616  0.64128634    -0.12500
N1801       N  0.79402446  0.66625893  0.63629154     0.64700
H1802       H  0.75678140  0.66482991  0.66142171     0.12500
N1803       N  0.73917805  0.74152910  0.66182430     0.61300
H1804       H  0.77606811  0.74273572  0.63555955     0.08700
O1805       O  0.88115709  0.69625280  0.61548460    -0.40100
O1806       O  0.87377197  0.72469099  0.63783548    -0.39300
O1807       O  0.77123141  0.73207067  0.57533234    -0.39300
O1808       O  0.76554391  0.69798845  0.58880903    -0.37000
O1809       O  0.73153853  0.74269409  0.68185817    -0.37900
O1810       O  0.73767071  0.75868541  0.64902218    -0.34100
O1811       O  0.79656799  0.64988163  0.64991281    -0.35500
O1812       O  0.80115796  0.66430530  0.61613812    -0.39800
C1813       C  0.82171601  0.71183919  0.43078657    -0.13500
C1814       C  0.84093569  0.70022295  0.43846924     0.16900
C1815       C  0.85280510  0.68591813  0.42341004     0.03200
C1816       C  0.84496340  0.68343028  0.40098493    -0.12000
C1817       C  0.82544076  0.69477708  0.39321632    -0.03000
C1818       C  0.81403915  0.70955749  0.40832819     0.02500
C1819       C  0.84856060  0.70370575  0.46219719     0.09300
N1820       N  0.87242304  0.67342896  0.43071833     0.65600
H1821       H  0.85392483  0.67205105  0.38968294     0.18600
N1822       N  0.79434993  0.72196360  0.40146304     0.76100
H1823       H  0.81275819  0.72302377  0.44230094     0.10100
C1824       C  0.86775038  0.71724230  0.46747484     0.03800
C1825       C  0.87488803  0.71896781  0.49021285    -0.04900
C1826       C  0.86311374  0.70777927  0.50781693    -0.23300
C1827       C  0.84425893  0.69374913  0.50230046     0.13000
C1828       C  0.83699320  0.69223116  0.47962313    -0.12500
N1829       N  0.87978889  0.72970122  0.45013995     0.64700
H1830       H  0.88922727  0.72987904  0.49427100     0.12500
N1831       N  0.83305649  0.68006942  0.51921590     0.61300
H1832       H  0.82268320  0.68133904  0.47538367     0.08700
O1833       O  0.79660558  0.73895814  0.38853242    -0.40100
O1834       O  0.77583772  0.71901456  0.41193658    -0.39300
O1835       O  0.87245130  0.66337743  0.44970219    -0.39300
O1836       O  0.88886772  0.67049952  0.41726711    -0.37000
O1837       O  0.81172070  0.67763196  0.51876578    -0.37900
O1838       O  0.84461658  0.66786723  0.53251472    -0.34100
O1839       O  0.86906098  0.73960752  0.43443346    -0.35500
O1840       O  0.90098853  0.73279186  0.45177214    -0.39800
C1841       C  0.95552216  0.73740378  0.58680248    -0.13500
C1842       C  0.97069269  0.73294147  0.56898601     0.16900
C1843       C  0.96225116  0.72377738  0.54845103     0.03200
C1844       C  0.93881542  0.72031617  0.54590741    -0.12000
C1845       C  0.92321701  0.72545922  0.56334735    -0.03000
C1846       C  0.93191188  0.73407507  0.58419602     0.02500
C1847       C  0.99503704  0.73953102  0.57123991     0.09300
N1848       N  0.97718744  0.71794587  0.52998217     0.65600
H1849       H  0.93284841  0.71316576  0.53000688     0.18600
N1850       N  0.91725604  0.74062405  0.60248468     0.76100
H1851       H  0.96199833  0.74463537  0.60248979     0.10100
C1852       C  0.00506083  0.75548058  0.55621362     0.03800
C1853       C  0.02878763  0.75788099  0.55580677    -0.04900
C1854       C  0.04286848  0.74523567  0.57033863    -0.23300
C1855       C  0.03266735  0.73034706  0.58634691     0.13000
C1856       C  0.00886544  0.72781486  0.58671316    -0.12500
N1857       N  0.99146861  0.76907374  0.54108864     0.64700
H1858       H  0.03634837  0.76992086  0.54403089     0.12500
N1859       N  0.04609864  0.71653985  0.60122465     0.61300
H1860       H  0.00121070  0.71551633  0.59816328     0.08700
O1861       O  0.90242779  0.75567012  0.59919599    -0.40100
O1862       O  0.92231180  0.73521399  0.62264287    -0.39300
O1863       O  0.99612163  0.70873744  0.53386272    -0.39300
O1864       O  0.97066041  0.72018432  0.50963876    -0.37000
O1865       O  0.04082612  0.71481180  0.62197121    -0.37900
O1866       O  0.06089298  0.70342457  0.59307821    -0.34100
O1867       O  0.97212853  0.77596925  0.54717772    -0.35500
O1868       O  0.99956729  0.77593888  0.52239260    -0.39800
C1869       C  0.44920315  0.11067087  0.76496564    -0.13500
C1870       C  0.44598802  0.12853796  0.78031303     0.16900
C1871       C  0.46505121  0.13919162  0.79019037     0.03200
C1872       C  0.48698403  0.13201517  0.78446050    -0.12000
C1873       C  0.49033657  0.11407973  0.76907908    -0.03000
C1874       C  0.47110388  0.10336328  0.75915737     0.02500
C1875       C  0.42252202  0.13539732  0.78621192     0.09300
N1876       N  0.46232646  0.15736260  0.80601462     0.65600
H1877       H  0.50147382  0.14028128  0.79240992     0.18600
N1878       N  0.47344989  0.08548200  0.74278982     0.76100
H1879       H  0.43452095  0.10244966  0.75731808     0.10100
C1880       C  0.40817215  0.14547436  0.76994869     0.03800
C1881       C  0.38545657  0.15005351  0.77549008    -0.04900
C1882       C  0.37664228  0.14498341  0.79720260    -0.23300
C1883       C  0.39127719  0.13486082  0.81345807     0.13000
C1884       C  0.41393260  0.13025522  0.80782729    -0.12500
N1885       N  0.41661121  0.15151445  0.74788894     0.64700
H1886       H  0.37475367  0.15791659  0.76273926     0.12500
N1887       N  0.38352541  0.12910826  0.83578261     0.61300
H1888       H  0.42482419  0.12221940  0.82032612     0.08700
O1889       O  0.48591377  0.08830040  0.72552111    -0.40100
O1890       O  0.46108416  0.06793239  0.74417126    -0.39300
O1891       O  0.46612599  0.15413196  0.82689312    -0.39300
O1892       O  0.45750205  0.17699347  0.79897066    -0.37000
O1893       O  0.37532714  0.10961238  0.83956601    -0.37900
O1894       O  0.38812002  0.14204939  0.85226317    -0.34100
O1895       O  0.40636495  0.14480217  0.73024655    -0.35500
O1896       O  0.43352136  0.16469563  0.74600917    -0.39800
C1897       C  0.63200359  0.19789730  0.75872142    -0.13500
C1898       C  0.62061763  0.18364232  0.77416335     0.16900
C1899       C  0.62244302  0.18801361  0.79764644     0.03200
C1900       C  0.63464369  0.20698567  0.80524854    -0.12000
C1901       C  0.64498229  0.22209749  0.78985889    -0.03000
C1902       C  0.64427736  0.21706290  0.76629884     0.02500
C1903       C  0.60553536  0.16506857  0.76600108     0.09300
N1904       N  0.61050484  0.17428172  0.81388315     0.65600
H1905       H  0.63481713  0.21074367  0.82330603     0.18600
N1906       N  0.65444958  0.23194460  0.74980328     0.76100
H1907       H  0.63089549  0.19439587  0.74065798     0.10100
C1908       C  0.58403322  0.17006173  0.75686493     0.03800
C1909       C  0.56759289  0.15287591  0.75500007    -0.04900
C1910       C  0.57218658  0.13043497  0.76175638    -0.23300
C1911       C  0.59437761  0.12511214  0.76947198     0.13000
C1912       C  0.61076676  0.14249876  0.77142850    -0.12500
N1913       N  0.57815979  0.19282639  0.75087273     0.64700
H1914       H  0.55090638  0.15727108  0.74858091     0.12500
N1915       N  0.60013599  0.10274879  0.77713615     0.61300
H1916       H  0.62721862  0.13866566  0.77876747     0.08700
O1917       O  0.64334933  0.23771184  0.73236556    -0.40100
O1918       O  0.67551070  0.23610254  0.75059701    -0.39300
O1919       O  0.62138049  0.16354444  0.82890084    -0.39300
O1920       O  0.58904933  0.17431027  0.81436661    -0.37000
O1921       O  0.61880375  0.09410275  0.77123603    -0.37900
O1922       O  0.58878334  0.09348001  0.79287120    -0.34100
O1923       O  0.58562103  0.20139143  0.73263384    -0.35500
O1924       O  0.56319586  0.20319208  0.76210098    -0.39800
C1925       C  0.60696562  0.83818587  0.72741226    -0.13500
C1926       C  0.60025891  0.81692626  0.71892224     0.16900
C1927       C  0.57760786  0.81349980  0.71211028     0.03200
C1928       C  0.56203569  0.83112627  0.71389003    -0.12000
C1929       C  0.56839837  0.85267012  0.72227248    -0.03000
C1930       C  0.59132909  0.85612368  0.72906307     0.02500
C1931       C  0.61633257  0.79769930  0.71820052     0.09300
N1932       N  0.57018683  0.79207345  0.70323747     0.65600
H1933       H  0.54475601  0.82773886  0.70839444     0.18600
N1934       N  0.59899702  0.87738205  0.73807225     0.76100
H1935       H  0.62438971  0.84080813  0.73289323     0.10100
C1936       C  0.63372788  0.79620220  0.70175059     0.03800
C1937       C  0.64586651  0.77581234  0.69956508    -0.04900
C1938       C  0.64079844  0.75675954  0.71323211    -0.23300
C1939       C  0.62460212  0.75921694  0.73097317     0.13000
C1940       C  0.61251111  0.77947536  0.73302510    -0.12500
N1941       N  0.63838025  0.81457933  0.68630752     0.64700
H1942       H  0.65833272  0.77443491  0.68607012     0.12500
N1943       N  0.61942038  0.74112600  0.74650507     0.61300
H1944       H  0.59942668  0.78079060  0.74595664     0.08700
O1945       O  0.60239127  0.89393002  0.72481130    -0.40100
O1946       O  0.60647395  0.87833109  0.75817813    -0.39300
O1947       O  0.55513588  0.78069604  0.71356644    -0.39300
O1948       O  0.57766127  0.78515019  0.68437875    -0.37000
O1949       O  0.63445162  0.73425736  0.76016766    -0.37900
O1950       O  0.59908328  0.73465145  0.74913544    -0.34100
O1951       O  0.65862345  0.81918886  0.68075817    -0.35500
O1952       O  0.62232428  0.82480091  0.67648640    -0.39800
C1953       C  0.40252733  0.85830015  0.70284396    -0.13500
C1954       C  0.42084851  0.84341621  0.70540306     0.16900
C1955       C  0.41673587  0.81967981  0.70524943     0.03200
C1956       C  0.39442014  0.81159026  0.70215751    -0.12000
C1957       C  0.37603942  0.82653211  0.69994808    -0.03000
C1958       C  0.38028020  0.85023284  0.69991137     0.02500
C1959       C  0.44399045  0.85336497  0.70801036     0.09300
N1960       N  0.43473167  0.80361953  0.70879008     0.65600
H1961       H  0.39127002  0.79344249  0.70243049     0.18600
N1962       N  0.36246234  0.86635129  0.69603085     0.76100
H1963       H  0.40567840  0.87645410  0.70250403     0.10100
C1964       C  0.46225357  0.84760996  0.69344614     0.03800
C1965       C  0.48406449  0.85625096  0.69817115    -0.04900
C1966       C  0.48781888  0.87147599  0.71616085    -0.23300
C1967       C  0.46935528  0.87813296  0.72977268     0.13000
C1968       C  0.44777837  0.86882854  0.72581521    -0.12500
N1969       N  0.45896912  0.83341543  0.67377474     0.64700
H1970       H  0.49818530  0.85150163  0.68737070     0.12500
N1971       N  0.47247847  0.89333975  0.74845007     0.61300
H1972       H  0.43389813  0.87344994  0.73698621     0.08700
O1973       O  0.34942038  0.86413358  0.67909954    -0.40100
O1974       O  0.36189913  0.88450833  0.70739903    -0.39300
O1975       O  0.45016271  0.80751076  0.72322827    -0.39300
O1976       O  0.43402830  0.78449781  0.69911966    -0.37000
O1977       O  0.47054980  0.91444338  0.74536131    -0.37900
O1978       O  0.47369250  0.88559748  0.76843463    -0.34100
O1979       O  0.44106909  0.83492275  0.66202342    -0.35500
O1980       O  0.47494281  0.82108485  0.66667962    -0.39800
C1981       C  0.55775976  0.96321286  0.75788649    -0.13500
C1982       C  0.54675139  0.97903279  0.74390019     0.16900
C1983       C  0.53450238  0.97135894  0.72479136     0.03200
C1984       C  0.53244231  0.94807675  0.72064190    -0.12000
C1985       C  0.54237937  0.93205454  0.73520726    -0.03000
C1986       C  0.55560489  0.93969340  0.75388898     0.02500
C1987       C  0.54672669  0.00342041  0.75004300     0.09300
N1988       N  0.52395898  0.98703546  0.70949408     0.65600
H1989       H  0.52260127  0.94242713  0.70607978     0.18600
N1990       N  0.56584265  0.92404692  0.76958743     0.76100
H1991       H  0.56713006  0.96918836  0.77261186     0.10100
C1992       C  0.52811284  0.01265226  0.76176843     0.03800
C1993       C  0.52626943  0.03620726  0.76395471    -0.04900
C1994       C  0.54287945  0.05108584  0.75505743    -0.23300
C1995       C  0.56201966  0.04168892  0.74386637     0.13000
C1996       C  0.56371173  0.01794995  0.74158402    -0.12500
N1997       N  0.51060957  0.99828607  0.77099284     0.64700
H1998       H  0.51169391  0.04286634  0.77295263     0.12500
N1999       N  0.57912702  0.05577893  0.73352800     0.61300
H2000       H  0.57779578  0.01083545  0.73215779     0.08700
O2001       O  0.55502216  0.90670762  0.77629597    -0.40100
O2002       O  0.58454855  0.92898506  0.77895660    -0.39300
O2003       O  0.52959419  0.98725952  0.68878313    -0.39300
O2004       O  0.50707021  0.99846226  0.71591048    -0.37000
O2005       O  0.59984831  0.05073977  0.73565365    -0.37900
O2006       O  0.57351576  0.07062678  0.71910964    -0.34100
O2007       O  0.51567028  0.98241999  0.78449178    -0.35500
O2008       O  0.48995612  0.00270328  0.76733974    -0.39800
loop_ 
_geom_bond_atom_site_label_1 
_geom_bond_atom_site_label_2 
_geom_bond_distance 
_geom_bond_site_symmetry_2 
_ccdc_geom_bond_type 
C1            N2   1.360       .  A
C1            N6   1.364       .  A
C1         C1985   1.480       .  S
N2            C3   1.355       .  A
C3            N4   1.352       .  A
C3         C1966   1.477       .  S
N4            C5   1.358       .  A
C5            N6   1.363       .  A
C5         C1929   1.495       .  S
C7            N8   1.359       .  A
C7           N12   1.362       .  A
C7         C1994   1.492       .  S
N8            C9   1.355       .  A
C9           N10   1.357       .  A
C9         C1873   1.484       .  S
N10          C11   1.361       .  A
C11          N12   1.363       .  A
C11        C1910   1.489       .  S
C13          N14   1.367       .  A
C13          N18   1.361       .  A
C13        C1845   1.500       .  S
N14          C15   1.366       .  A
C15          N16   1.359       .  A
C15        C1789   1.498       .  S
N16          C17   1.353       .  A
C17          N18   1.353       .  A
C17        C1826   1.484       .  S
C19          N20   1.359       .  A
C19          N24   1.356       .  A
C19        C1854   1.487       .  S
N20          C21   1.362       .  A
C21          N22   1.363       .  A
C21        C1761   1.483       .  S
N22          C23   1.360       .  A
C23          N24   1.357       .  A
C23        C1742   1.492       .  S
C25          N26   1.367       .  A
C25          N30   1.361       .  A
C25        C1705   1.493       .  S
N26          C27   1.365       .  A
C27          N28   1.357       .  A
C27        C1677   1.489       .  S
N28          C29   1.353       .  A
C29          N30   1.357       .  A
C29        C1649   1.493       .  S
C31          N32   1.362       .  A
C31          N36   1.363       .  A
C31        C1714   1.492       .  S
N32          C33   1.359       .  A
C33          N34   1.358       .  A
C33        C1621   1.501       .  S
N34          C35   1.358       .  A
C35          N36   1.363       .  A
C35        C1593   1.492       .  S
C37          N38   1.358       .  A
C37          N42   1.365       .  A
C37        C1565   1.483       .  S
N38          C39   1.353       .  A
C39          N40   1.352       .  A
C39        C1537   1.480       .  S
N40          C41   1.358       .  A
C41          N42   1.365       .  A
C41        C1509   1.490       .  S
C43          N44   1.362       .  A
C43          N48   1.362       .  A
C43        C1574   1.484       .  S
N44          C45   1.360       .  A
C45          N46   1.356       .  A
C45        C1481   1.487       .  S
N46          C47   1.353       .  A
C47          N48   1.358       .  A
C47        C1453   1.490       .  S
Zn49         O53   1.949       .  S
Zn49         O54   1.993       .  S
Zn49         O58   2.010       .  S
Zn49         O65   2.002       .  S
Zn50         O53   1.984       .  S
Zn50         O55   2.066       .  S
Zn50         O57   2.050       .  S
Zn50         O61   2.047       .  S
Zn51         O53   1.951       .  S
Zn51         O56   2.013       .  S
Zn51         O59   2.003       .  S
Zn51         O62   2.012       .  S
Zn52         O53   1.961       .  S
Zn52         O60   2.025       .  S
Zn52         O63   2.001       .  S
Zn52         O64   2.036       .  S
O54          C66   1.272       .  A
O55          C67   1.279       .  A
O56          C68   1.273       .  A
O57          C66   1.276       .  A
O58          C68   1.271       .  A
O59          C67   1.273       .  A
O60          C69   1.275       .  A
O61          C70   1.277       .  A
O62          C69   1.272       .  A
O63          C70   1.274       .  A
O64          C71   1.274       .  A
O65          C71   1.270       .  A
C66        C1397   1.480       .  S
C67        C1425   1.490       .  S
C68        C1546   1.490       .  S
C69        C1341   1.484       .  S
C70        C1901   1.482       .  S
C71        C1369   1.487       .  S
Zn72         O76   1.956       .  S
Zn72         O77   2.013       .  S
Zn72         O81   1.986       .  S
Zn72         O88   2.024       .  S
Zn73         O76   1.950       .  S
Zn73         O78   1.997       .  S
Zn73         O80   2.011       .  S
Zn73         O84   2.000       .  S
Zn74         O76   1.992       .  S
Zn74         O79   2.065       .  S
Zn74         O82   2.072       .  S
Zn74         O85   2.062       .  S
Zn75         O76   1.958       .  S
Zn75         O83   2.003       .  S
Zn75         O86   2.023       .  S
Zn75         O87   2.018       .  S
O77          C89   1.271       .  A
O78          C90   1.272       .  A
O79          C91   1.279       .  A
O80          C89   1.272       .  A
O81          C91   1.272       .  A
O82          C90   1.280       .  A
O83          C92   1.274       .  A
O84          C93   1.271       .  A
O85          C92   1.279       .  A
O86          C93   1.274       .  A
O87          C94   1.273       .  A
O88          C94   1.273       .  A
C89        C1257   1.491       .  S
C90        C1313   1.493       .  S
C91        C1770   1.478       .  S
C92        C1285   1.483       .  S
C93        C1957   1.482       .  S
C94        C1630   1.488       .  S
C95          N96   1.359       .  A
C95         N100   1.363       .  A
C95        C1229   1.498       .  S
N96          C97   1.357       .  A
C97          N98   1.356       .  A
C97        C1201   1.497   1_455  S
N98          C99   1.359       .  A
C99         N100   1.363       .  A
C99        C1182   1.481       .  S
C101        N102   1.361       .  A
C101        N106   1.357       .  A
C101       C1238   1.478       .  S
N102        C103   1.363       .  A
C103        N104   1.360       .  A
C103       C1117   1.482       .  S
N104        C105   1.357       .  A
C105        N106   1.356       .  A
C105       C1145   1.488   1_455  S
Zn107       O111   1.964       .  S
Zn107       O112   2.024       .  S
Zn107       O116   2.042       .  S
Zn107       O123   2.033       .  S
Zn108       O111   1.960       .  S
Zn108       O113   2.021       .  S
Zn108       O115   2.014       .  S
Zn108       O119   2.010       .  S
Zn109       O111   1.948       .  S
Zn109       O114   2.009       .  S
Zn109       O117   2.014       .  S
Zn109       O120   1.998       .  S
Zn110       O111   1.967       .  S
Zn110       O118   2.028       .  S
Zn110       O121   2.030       .  S
Zn110       O122   2.018       .  S
O112        C124   1.273       .  A
O113        C125   1.273       .  A
O114        C126   1.274       .  A
O115        C124   1.274       .  A
O116        C126   1.275       .  A
O117        C125   1.273       .  A
O118        C127   1.275       .  A
O119        C128   1.274       .  A
O120        C127   1.271       .  A
O121        C128   1.274       .  A
O122        C129   1.275       .  A
O123        C129   1.275       .  A
C124       C1817   1.489       .  S
C125       C1061   1.491       .  S
C126       C1686   1.496       .  S
C127       C1490   1.490       .  S
C128       C1210   1.493       .  S
C129       C1089   1.496       .  S
C130        N131   1.364       .  A
C130        N135   1.369       .  A
C130       C1042   1.496       .  S
N131        C132   1.358       .  A
C132        N133   1.352       .  A
C132       C1014   1.482       .  S
N133        C134   1.356       .  A
C134        N135   1.367       .  A
C134       C1434   1.496       .  S
C136        N137   1.364       .  A
C136        N141   1.361       .  A
C136       C1033   1.487       .  S
N137        C138   1.364       .  A
C138        N139   1.358       .  A
C138        C986   1.488       .  S
N139        C140   1.356       .  A
C140        N141   1.358       .  A
C140        C949   1.491       .  S
Zn142       O146   1.946       .  S
Zn142       O147   2.006       .  S
Zn142       O151   2.000       .  S
Zn142       O158   1.988       .  S
Zn143       O146   1.955       .  S
Zn143       O148   2.021       .  S
Zn143       O150   2.024       .  S
Zn143       O154   1.998       .  S
Zn144       O146   1.957       .  S
Zn144       O149   2.024       .  S
Zn144       O152   2.013       .  S
Zn144       O155   1.999       .  S
Zn145       O146   1.988       .  S
Zn145       O153   2.057       .  S
Zn145       O156   2.061       .  S
Zn145       O157   2.063       .  S
O147        C159   1.271       .  A
O148        C160   1.273       .  A
O149        C161   1.272       .  A
O150        C159   1.274       .  A
O151        C161   1.271       .  A
O152        C160   1.273       .  A
O153        C162   1.278       .  A
O154        C163   1.274       .  A
O155        C162   1.272       .  A
O156        C163   1.278       .  A
O157        C164   1.277       .  A
O158        C164   1.272       .  A
C159       C1154   1.486       .  S
C160       C1462   1.488       .  S
C161       C1005   1.492       .  S
C162        C874   1.476       .  S
C163        C930   1.493       .  S
C164        C902   1.486       .  S
C165        N166   1.359       .  A
C165        N170   1.365       .  A
C165        C846   1.495       .  S
N166        C167   1.352       .  A
C167        N168   1.353       .  A
C167        C809   1.491       .  S
N168        C169   1.357       .  A
C169        N170   1.364       .  A
C169        C790   1.487       .  S
C171        N172   1.361       .  A
C171        N176   1.359       .  A
C171        C837   1.486       .  S
N172        C173   1.362       .  A
C173        N174   1.359       .  A
C173        C865   1.488       .  S
N174        C175   1.358       .  A
C175        N176   1.357       .  A
C175       C1350   1.497       .  S
C177        N178   1.360       .  A
C177        N182   1.364       .  A
C177        C753   1.486       .  S
N178        C179   1.357       .  A
C179        N180   1.359       .  A
C179        C734   1.500       .  S
N180        C181   1.359       .  A
C181        N182   1.363       .  A
C181       C1322   1.487       .  S
C183        N184   1.360       .  A
C183        N188   1.362       .  A
C183        C762   1.491       .  S
N184        C185   1.358       .  A
C185        N186   1.358       .  A
C185        C697   1.489       .  S
N186        C187   1.360       .  A
C187        N188   1.363       .  A
C187        C669   1.489       .  S
Zn189       O193   1.954       .  S
Zn189       O194   1.990       .  S
Zn189       O198   2.011       .  S
Zn189       O205   2.009       .  S
Zn190       O193   1.968       .  S
Zn190       O195   2.046       .  S
Zn190       O197   2.019       .  S
Zn190       O201   2.031       .  S
Zn191       O193   1.962       .  S
Zn191       O196   2.035       .  S
Zn191       O199   2.023       .  S
Zn191       O202   2.018       .  S
Zn192       O193   1.962       .  S
Zn192       O200   2.015       .  S
Zn192       O203   2.030       .  S
Zn192       O204   2.039       .  S
O194        C206   1.270       .  A
O195        C207   1.277       .  A
O196        C208   1.276       .  A
O197        C206   1.274       .  A
O198        C208   1.272       .  A
O199        C207   1.275       .  A
O200        C209   1.275       .  A
O201        C210   1.276       .  A
O202        C209   1.275       .  A
O203        C210   1.276       .  A
O204        C211   1.275       .  A
O205        C211   1.271       .  A
C206        C818   1.487       .  S
C207        C622   1.490       .  S
C208       C1882   1.494       .  S
C209        C650   1.486       .  S
C210        C977   1.493       .  S
C211        C725   1.498       .  S
C212        N213   1.358       .  A
C212        N217   1.362       .  A
C212        C585   1.483       .  S
N213        C214   1.354       .  A
C214        N215   1.354       .  A
C214        C529   1.478   1_545  S
N215        C216   1.359       .  A
C216        N217   1.364       .  A
C216        C557   1.483       .  S
C218        N219   1.359       .  A
C218        N223   1.362       .  A
C218        C594   1.481       .  S
N219        C220   1.355       .  A
C220        N221   1.353       .  A
C220       C1266   1.481   1_545  S
N221        C222   1.359       .  A
C222        N223   1.361       .  A
C222        C641   1.494       .  S
Zn224       O228   1.955       .  S
Zn224       O229   2.021       .  S
Zn224       O233   2.016       .  S
Zn224       O240   2.013       .  S
Zn225       O228   1.955       .  S
Zn225       O230   2.017       .  S
Zn225       O232   2.018       .  S
Zn225       O236   2.017       .  S
Zn226       O228   1.965       .  S
Zn226       O231   2.039       .  S
Zn226       O234   2.025       .  S
Zn226       O237   2.015       .  S
Zn227       O228   1.965       .  S
Zn227       O235   2.016       .  S
Zn227       O238   2.027       .  S
Zn227       O239   2.027       .  S
O229        C241   1.275       .  A
O230        C242   1.272       .  A
O231        C243   1.275       .  A
O232        C241   1.274       .  A
O233        C243   1.274       .  A
O234        C242   1.275       .  A
O235        C244   1.272       .  A
O236        C245   1.273       .  A
O237        C244   1.274       .  A
O238        C245   1.275       .  A
O239        C246   1.275       .  A
O240        C246   1.274       .  A
C241        C781   1.486       .  S
C242        C958   1.494       .  S
C243        C706   1.498       .  S
C244        C501   1.489       .  S
C245       C1126   1.490       .  S
C246        C566   1.485       .  S
C247        N248   1.359       .  A
C247        N252   1.365       .  A
C247        C473   1.491       .  S
N248        C249   1.354       .  A
C249        N250   1.354       .  A
C249        C445   1.475       .  S
N250        C251   1.359       .  A
C251        N252   1.365       .  A
C251       C1098   1.493       .  S
C253        N254   1.364       .  A
C253        N258   1.356       .  A
C253        C482   1.494       .  S
N254        C255   1.364       .  A
C255        N256   1.360       .  A
C255        C893   1.488       .  S
N256        C257   1.355       .  A
C257        N258   1.355       .  A
C257        C510   1.492       .  S
Zn259       O263   1.956       .  S
Zn259       O264   1.998       .  S
Zn259       O268   2.017       .  S
Zn259       O275   2.011       .  S
Zn260       O263   1.987       .  S
Zn260       O265   2.058       .  S
Zn260       O267   2.061       .  S
Zn260       O271   2.066       .  S
Zn261       O263   1.958       .  S
Zn261       O266   2.017       .  S
Zn261       O269   2.008       .  S
Zn261       O272   2.026       .  S
Zn262       O263   1.953       .  S
Zn262       O270   2.011       .  S
Zn262       O273   1.997       .  S
Zn262       O274   2.017       .  S
O264        C276   1.272       .  A
O265        C277   1.279       .  A
O266        C278   1.273       .  A
O267        C276   1.278       .  A
O268        C278   1.273       .  A
O269        C277   1.274       .  A
O270        C279   1.272       .  A
O271        C280   1.279       .  A
O272        C279   1.274       .  A
O273        C280   1.273       .  A
O274        C281   1.272       .  A
O275        C281   1.273       .  A
C276       C1602   1.481       .  S
C277       C1173   1.491       .  S
C278       C1733   1.491       .  S
C279        C454   1.487       .  S
C280        C678   1.483       .  S
C281        C538   1.491       .  S
C282        N283   1.359       .  A
C282        N287   1.365       .  A
C282        C417   1.499       .  S
N283        C284   1.356       .  A
C284        N285   1.355       .  A
C284       C1378   1.498       .  S
N285        C286   1.359       .  A
C286        N287   1.365       .  A
C286        C613   1.484       .  S
C288        N289   1.364       .  A
C288        N293   1.360       .  A
C288        C426   1.488       .  S
N289        C290   1.363       .  A
C290        N291   1.359       .  A
C290       C1294   1.495       .  S
N291        C292   1.355       .  A
C292        N293   1.358       .  A
C292        C389   1.492       .  S
C294        N295   1.362       .  A
C294        N299   1.358       .  A
C294        C361   1.489       .  S
N295        C296   1.362       .  A
C296        N297   1.361       .  A
C296        C921   1.486       .  S
N297        C298   1.359       .  A
C298        N299   1.356       .  A
C298       C1070   1.486       .  S
C300        N301   1.359       .  A
C300        N305   1.364       .  A
C300        C370   1.488       .  S
N301        C302   1.354       .  A
C302        N303   1.353       .  A
C302        C333   1.475       .  S
N303        C304   1.359       .  A
C304        N305   1.364       .  A
C304       C1406   1.496       .  S
Zn306       O310   1.971       .  S
Zn306       O311   2.029       .  S
Zn306       O315   2.045       .  S
Zn306       O322   2.039       .  S
Zn307       O310   1.968       .  S
Zn307       O312   2.042       .  S
Zn307       O314   2.036       .  S
Zn307       O318   2.031       .  S
Zn308       O310   1.948       .  S
Zn308       O313   1.996       .  S
Zn308       O316   1.998       .  S
Zn308       O319   2.016       .  S
Zn309       O310   1.952       .  S
Zn309       O317   2.005       .  S
Zn309       O320   2.002       .  S
Zn309       O321   1.993       .  S
O311        C323   1.276       .  A
O312        C324   1.276       .  A
O313        C325   1.271       .  A
O314        C323   1.278       .  A
O315        C325   1.277       .  A
O316        C324   1.273       .  A
O317        C326   1.271       .  A
O318        C327   1.275       .  A
O319        C326   1.270       .  A
O320        C327   1.271       .  A
O321        C328   1.272       .  A
O322        C328   1.275       .  A
C323       C1798   1.490       .  S
C324       C1518   1.495       .  S
C325       C1938   1.495       .  S
C326        C398   1.482       .  S
C327        C342   1.488       .  S
C328       C1658   1.492       .  S
C329        C330   1.402       .  A
C329        C334   1.400       .  A
C329        H339   1.085       .  S
C330        C335   1.477       .  S
C330        C331   1.414       .  A
C331        C332   1.404       .  A
C331        N336   1.439       .  S
C332        C333   1.403       .  A
C332        H337   1.084       .  S
C333        C334   1.408       .  A
C334        N338   1.430       .  S
C335        C340   1.407       .  A
C335        C344   1.398       .  A
N336        O351   1.263       .  A
N336        O352   1.262       .  A
N338        O349   1.262       .  A
N338        O350   1.262       .  A
C340        C341   1.402       .  A
C340        N345   1.431       .  S
C341        C342   1.408       .  A
C341        H346   1.084       .  S
C342        C343   1.421       .  A
C343        C344   1.402       .  A
C343        N347   1.435       .  S
C344        H348   1.085       .  S
N345        O355   1.262       .  A
N345        O356   1.262       .  A
N347        O353   1.263       .  A
N347        O354   1.262       .  A
C357        C358   1.400       .  A
C357        C362   1.401       .  A
C357        H367   1.084       .  S
C358        C363   1.484       .  S
C358        C359   1.415       .  A
C359        C360   1.409       .  A
C359        N364   1.439       .  S
C360        C361   1.408       .  A
C360        H365   1.083       .  S
C361        C362   1.418       .  A
C362        N366   1.437       .  S
C363        C368   1.414       .  A
C363        C372   1.400       .  A
N364        O379   1.262       .  A
N364        O380   1.263       .  A
N366        O377   1.263       .  A
N366        O378   1.263       .  A
C368        C369   1.408       .  A
C368        N373   1.437       .  S
C369        C370   1.407       .  A
C369        H374   1.083       .  S
C370        C371   1.418       .  A
C371        C372   1.401       .  A
C371        N375   1.438       .  S
C372        H376   1.084       .  S
N373        O383   1.262       .  A
N373        O384   1.262       .  A
N375        O381   1.263       .  A
N375        O382   1.263       .  A
C385        C386   1.400       .  A
C385        C390   1.399       .  A
C385        H395   1.085       .  S
C386        C391   1.482       .  S
C386        C387   1.413       .  A
C387        C388   1.406       .  A
C387        N392   1.439       .  S
C388        C389   1.408       .  A
C388        H393   1.084       .  S
C389        C390   1.417       .  A
C390        N394   1.430       .  S
C391        C396   1.414       .  A
C391        C400   1.403       .  A
N392        O407   1.263       .  A
N392        O408   1.263       .  A
N394        O405   1.262       .  A
N394        O406   1.262       .  A
C396        C397   1.402       .  A
C396        N401   1.439       .  S
C397        C398   1.405       .  A
C397        H402   1.085       .  S
C398        C399   1.415       .  A
C399        C400   1.403       .  A
C399        N403   1.432       .  S
C400        H404   1.085       .  S
N401        O411   1.263       .  A
N401        O412   1.263       .  A
N403        O409   1.262       .  A
N403        O410   1.262       .  A
C413        C414   1.405       .  A
C413        C418   1.408       .  A
C413        H423   1.084       .  S
C414        C419   1.491       .  S
C414        C415   1.414       .  A
C415        C416   1.402       .  A
C415        N420   1.440       .  S
C416        C417   1.410       .  A
C416        H421   1.083       .  S
C417        C418   1.416       .  A
C418        N422   1.430       .  S
C419        C424   1.416       .  A
C419        C428   1.404       .  A
N420        O435   1.263       .  A
N420        O436   1.263       .  A
N422        O433   1.262       .  A
N422        O434   1.262       .  A
C424        C425   1.405       .  A
C424        N429   1.441       .  S
C425        C426   1.406       .  A
C425        H430   1.084       .  S
C426        C427   1.416       .  A
C427        C428   1.408       .  A
C427        N431   1.436       .  S
C428        H432   1.084       .  S
N429        O439   1.263       .  A
N429        O440   1.263       .  A
N431        O437   1.263       .  A
N431        O438   1.262       .  A
C441        C442   1.402       .  A
C441        C446   1.402   1_455  A
C441        H451   1.084       .  S
C442        C447   1.481       .  S
C442        C443   1.414       .  A
C443        C444   1.406   1_455  A
C443        N448   1.439       .  S
C444        C445   1.404       .  A
C444        H449   1.084       .  S
C445        C446   1.413       .  A
C446        N450   1.438       .  S
C447        C452   1.416       .  A
C447        C456   1.400       .  A
N448        O463   1.263       .  A
N448        O464   1.263       .  A
N450        O461   1.263       .  A
N450        O462   1.263       .  A
C452        C453   1.408       .  A
C452        N457   1.440       .  S
C453        C454   1.407       .  A
C453        H458   1.084       .  S
C454        C455   1.413       .  A
C455        C456   1.397       .  A
C455        N459   1.427       .  S
C456        H460   1.085       .  S
N457        O467   1.262       .  A
N457        O468   1.263       .  A
N459        O465   1.261       .  A
N459        O466   1.262       .  A
C469        C470   1.402       .  A
C469        C474   1.397       .  A
C469        H479   1.085       .  S
C470        C475   1.489       .  S
C470        C471   1.417       .  A
C471        C472   1.411       .  A
C471        N476   1.440       .  S
C472        C473   1.408       .  A
C472        H477   1.084       .  S
C473        C474   1.415       .  A
C474        N478   1.433       .  S
C475        C480   1.417   1_565  A
C475        C484   1.400   1_565  A
N476        O491   1.262       .  A
N476        O492   1.263       .  A
N478        O489   1.262       .  A
N478        O490   1.262       .  A
C480        C481   1.410       .  A
C480        N485   1.438       .  S
C481        C482   1.408       .  A
C481        H486   1.083       .  S
C482        C483   1.420       .  A
C483        C484   1.399       .  A
C483        N487   1.436       .  S
C484        H488   1.085   1_545  S
N485        O495   1.262   1_545  A
N485        O496   1.263       .  A
N487        O493   1.263       .  A
N487        O494   1.263       .  A
C497        C498   1.400       .  A
C497        C502   1.403       .  A
C497        H507   1.085       .  S
C498        C503   1.477       .  S
C498        C499   1.411       .  A
C499        C500   1.401       .  A
C499        N504   1.438       .  S
C500        C501   1.407       .  A
C500        H505   1.084       .  S
C501        C502   1.419       .  A
C502        N506   1.432       .  S
C503        C508   1.406       .  A
C503        C512   1.400   1_455  A
N504        O519   1.263       .  A
N504        O520   1.262       .  A
N506        O517   1.262       .  A
N506        O518   1.262       .  A
C508        C509   1.399   1_455  A
C508        N513   1.432       .  S
C509        C510   1.409       .  A
C509        H514   1.088       .  S
C510        C511   1.419       .  A
C511        C512   1.402       .  A
C511        N515   1.429       .  S
C512        H516   1.089       .  S
N513        O523   1.262       .  A
N513        O524   1.262       .  A
N515        O521   1.262       .  A
N515        O522   1.262       .  A
C525        C526   1.403       .  A
C525        C530   1.401       .  A
C525        H535   1.085       .  S
C526        C531   1.486       .  S
C526        C527   1.415       .  A
C527        C528   1.404       .  A
C527        N532   1.438       .  S
C528        C529   1.404       .  A
C528        H533   1.084       .  S
C529        C530   1.414       .  A
C530        N534   1.436       .  S
C531        C536   1.413       .  A
C531        C540   1.403       .  A
N532        O547   1.263       .  A
N532        O548   1.263       .  A
N534        O545   1.262       .  A
N534        O546   1.263   1_565  A
C536        C537   1.403       .  A
C536        N541   1.438       .  S
C537        C538   1.408       .  A
C537        H542   1.084       .  S
C538        C539   1.418       .  A
C539        C540   1.402       .  A
C539        N543   1.433       .  S
C540        H544   1.085       .  S
N541        O551   1.263       .  A
N541        O552   1.263       .  A
N543        O549   1.262       .  A
N543        O550   1.262       .  A
C553        C554   1.403       .  A
C553        C558   1.399       .  A
C553        H563   1.085       .  S
C554        C559   1.489       .  S
C554        C555   1.417       .  A
C555        C556   1.408       .  A
C555        N560   1.439       .  S
C556        C557   1.405       .  A
C556        H561   1.084       .  S
C557        C558   1.415       .  A
C558        N562   1.436       .  S
C559        C564   1.416       .  A
C559        C568   1.403       .  A
N560        O575   1.263       .  A
N560        O576   1.263       .  A
N562        O573   1.263       .  A
N562        O574   1.263       .  A
C564        C565   1.405       .  A
C564        N569   1.440       .  S
C565        C566   1.405       .  A
C565        H570   1.084       .  S
C566        C567   1.416       .  A
C567        C568   1.403       .  A
C567        N571   1.435       .  S
C568        H572   1.084       .  S
N569        O579   1.263       .  A
N569        O580   1.263       .  A
N571        O577   1.263       .  A
N571        O578   1.262       .  A
C581        C582   1.400       .  A
C581        C586   1.399       .  A
C581        H591   1.085       .  S
C582        C587   1.482       .  S
C582        C583   1.414       .  A
C583        C584   1.410       .  A
C583        N588   1.439       .  S
C584        C585   1.406       .  A
C584        H589   1.084       .  S
C585        C586   1.415       .  A
C586        N590   1.438       .  S
C587        C592   1.411       .  A
C587        C596   1.403       .  A
N588        O603   1.263       .  A
N588        O604   1.263       .  A
N590        O601   1.263   1_545  A
N590        O602   1.263       .  A
C592        C593   1.400       .  A
C592        N597   1.438       .  S
C593        C594   1.404       .  A
C593        H598   1.085       .  S
C594        C595   1.418       .  A
C595        C596   1.408       .  A
C595        N599   1.438       .  S
C596        H600   1.084       .  S
N597        O607   1.263   1_545  A
N597        O608   1.263       .  A
N599        O605   1.263       .  A
N599        O606   1.263       .  A
C609        C610   1.406       .  A
C609        C614   1.405       .  A
C609        H619   1.082       .  S
C610        C615   1.499       .  S
C610        C611   1.419       .  A
C611        C612   1.411       .  A
C611        N616   1.439       .  S
C612        C613   1.404       .  A
C612        H617   1.083       .  S
C613        C614   1.415       .  A
C614        N618   1.441       .  S
C615        C620   1.418       .  A
C615        C624   1.406       .  A
N616        O631   1.263       .  A
N616        O632   1.263       .  A
N618        O629   1.263       .  A
N618        O630   1.263       .  A
C620        C621   1.409       .  A
C620        N625   1.440       .  S
C621        C622   1.406       .  A
C621        H626   1.083       .  S
C622        C623   1.414       .  A
C623        C624   1.405       .  A
C623        N627   1.433       .  S
C624        H628   1.083       .  S
N625        O635   1.263       .  A
N625        O636   1.263       .  A
N627        O633   1.262       .  A
N627        O634   1.262       .  A
C637        C638   1.400       .  A
C637        C642   1.404       .  A
C637        H647   1.102       .  S
C638        C643   1.479       .  S
C638        C639   1.411       .  A
C639        C640   1.396       .  A
C639        N644   1.439       .  S
C640        C641   1.408       .  A
C640        H645   1.101       .  S
C641        C642   1.421       .  A
C642        N646   1.432       .  S
C643        C648   1.411       .  A
C643        C652   1.401       .  A
N644        O659   1.263       .  A
N644        O660   1.263       .  A
N646        O657   1.262       .  A
N646        O658   1.263       .  A
C648        C649   1.402       .  A
C648        N653   1.436       .  S
C649        C650   1.407       .  A
C649        H654   1.087       .  S
C650        C651   1.417       .  A
C651        C652   1.401       .  A
C651        N655   1.436       .  S
C652        H656   1.089       .  S
N653        O663   1.262       .  A
N653        O664   1.263       .  A
N655        O661   1.263       .  A
N655        O662   1.263       .  A
C665        C666   1.401       .  A
C665        C670   1.403       .  A
C665        H675   1.084       .  S
C666        C671   1.485       .  S
C666        C667   1.410       .  A
C667        C668   1.405       .  A
C667        N672   1.432       .  S
C668        C669   1.406       .  A
C668        H673   1.084       .  S
C669        C670   1.417       .  A
C670        N674   1.434       .  S
C671        C676   1.413       .  A
C671        C680   1.399       .  A
N672        O687   1.262       .  A
N672        O688   1.262       .  A
N674        O685   1.262       .  A
N674        O686   1.262       .  A
C676        C677   1.410       .  A
C676        N681   1.434       .  S
C677        C678   1.405       .  A
C677        H682   1.084       .  S
C678        C679   1.415       .  A
C679        C680   1.400       .  A
C679        N683   1.435       .  S
C680        H684   1.084       .  S
N681        O691   1.262       .  A
N681        O692   1.262       .  A
N683        O689   1.263       .  A
N683        O690   1.262       .  A
C693        C694   1.402       .  A
C693        C698   1.405   1_545  A
C693        H703   1.085       .  S
C694        C699   1.486       .  S
C694        C695   1.410   1_545  A
C695        C696   1.405       .  A
C695        N700   1.435       .  S
C696        C697   1.408       .  A
C696        H701   1.084       .  S
C697        C698   1.418       .  A
C698        N702   1.436       .  S
C699        C704   1.411       .  A
C699        C708   1.402       .  A
N700        O715   1.262       .  A
N700        O716   1.263   1_565  A
N702        O713   1.263       .  A
N702        O714   1.263   1_565  A
C704        C705   1.405       .  A
C704        N709   1.439       .  S
C705        C706   1.410       .  A
C705        H710   1.084       .  S
C706        C707   1.419       .  A
C707        C708   1.405       .  A
C707        N711   1.432       .  S
C708        H712   1.085       .  S
N709        O719   1.263       .  A
N709        O720   1.263       .  A
N711        O717   1.262       .  A
N711        O718   1.262       .  A
C721        C722   1.400       .  A
C721        C726   1.401       .  A
C721        H731   1.084       .  S
C722        C727   1.487       .  S
C722        C723   1.415       .  A
C723        C724   1.409       .  A
C723        N728   1.440       .  S
C724        C725   1.410       .  A
C724        H729   1.083       .  S
C725        C726   1.420       .  A
C726        N730   1.433       .  S
C727        C732   1.413   1_545  A
C727        C736   1.401       .  A
N728        O743   1.263       .  A
N728        O744   1.263       .  A
N730        O741   1.262       .  A
N730        O742   1.262       .  A
C732        C733   1.405       .  A
C732        N737   1.440   1_565  S
C733        C734   1.411       .  A
C733        H738   1.083       .  S
C734        C735   1.421       .  A
C735        C736   1.404   1_565  A
C735        N739   1.434       .  S
C736        H740   1.084       .  S
N737        O747   1.262       .  A
N737        O748   1.263   1_545  A
N739        O745   1.262   1_565  A
N739        O746   1.263       .  A
C749        C750   1.401       .  A
C749        C754   1.406       .  A
C749        H759   1.084   1_556  S
C750        C755   1.485   1_556  S
C750        C751   1.410       .  A
C751        C752   1.406       .  A
C751        N756   1.432       .  S
C752        C753   1.406       .  A
C752        H757   1.084       .  S
C753        C754   1.419       .  A
C754        N758   1.440       .  S
C755        C760   1.412       .  A
C755        C764   1.401       .  A
N756        O771   1.262       .  A
N756        O772   1.262   1_556  A
N758        O769   1.263       .  A
N758        O770   1.263       .  A
C760        C761   1.407       .  A
C760        N765   1.436       .  S
C761        C762   1.407       .  A
C761        H766   1.084       .  S
C762        C763   1.419       .  A
C763        C764   1.405       .  A
C763        N767   1.438       .  S
C764        H768   1.084       .  S
N765        O775   1.262       .  A
N765        O776   1.262       .  A
N767        O773   1.263       .  A
N767        O774   1.263       .  A
C777        C778   1.404       .  A
C777        C782   1.404       .  A
C777        H787   1.085       .  S
C778        C783   1.487       .  S
C778        C779   1.415       .  A
C779        C780   1.403       .  A
C779        N784   1.438       .  S
C780        C781   1.406       .  A
C780        H785   1.085       .  S
C781        C782   1.417       .  A
C782        N786   1.437       .  S
C783        C788   1.412       .  A
C783        C792   1.406       .  A
N784        O799   1.263       .  A
N784        O800   1.263       .  A
N786        O797   1.263       .  A
N786        O798   1.263       .  A
C788        C789   1.398       .  A
C788        N793   1.438       .  S
C789        C790   1.407       .  A
C789        H794   1.085       .  S
C790        C791   1.416       .  A
C791        C792   1.408       .  A
C791        N795   1.434       .  S
C792        H796   1.085       .  S
N793        O803   1.263       .  A
N793        O804   1.263       .  A
N795        O801   1.262       .  A
N795        O802   1.262       .  A
C805        C806   1.398       .  A
C805        C810   1.399       .  A
C805        H815   1.085       .  S
C806        C811   1.474       .  S
C806        C807   1.411       .  A
C807        C808   1.402   1_556  A
C807        N812   1.440       .  S
C808        C809   1.410       .  A
C808        H813   1.083       .  S
C809        C810   1.420   1_554  A
C810        N814   1.434       .  S
C811        C816   1.411       .  A
C811        C820   1.398       .  A
N812        O827   1.263       .  A
N812        O828   1.263       .  A
N814        O825   1.262   1_556  A
N814        O826   1.262       .  A
C816        C817   1.402       .  A
C816        N821   1.438       .  S
C817        C818   1.408       .  A
C817        H822   1.083       .  S
C818        C819   1.418       .  A
C819        C820   1.397       .  A
C819        N823   1.431       .  S
C820        H824   1.085       .  S
N821        O831   1.262       .  A
N821        O832   1.263       .  A
N823        O829   1.262       .  A
N823        O830   1.262       .  A
C833        C834   1.404       .  A
C833        C838   1.406       .  A
C833        H843   1.084       .  S
C834        C839   1.486       .  S
C834        C835   1.415       .  A
C835        C836   1.402       .  A
C835        N840   1.441       .  S
C836        C837   1.404       .  A
C836        H841   1.082       .  S
C837        C838   1.414       .  A
C838        N842   1.431       .  S
C839        C844   1.412       .  A
C839        C848   1.403       .  A
N840        O855   1.263       .  A
N840        O856   1.263       .  A
N842        O853   1.262       .  A
N842        O854   1.262       .  A
C844        C845   1.399       .  A
C844        N849   1.441       .  S
C845        C846   1.409       .  A
C845        H850   1.083       .  S
C846        C847   1.418       .  A
C847        C848   1.408       .  A
C847        N851   1.433       .  S
C848        H852   1.084       .  S
N849        O859   1.263       .  A
N849        O860   1.263       .  A
N851        O857   1.262       .  A
N851        O858   1.262       .  A
C861        C862   1.401       .  A
C861        C866   1.401       .  A
C861        H871   1.085       .  S
C862        C867   1.486       .  S
C862        C863   1.414       .  A
C863        C864   1.408       .  A
C863        N868   1.438       .  S
C864        C865   1.407       .  A
C864        H869   1.084       .  S
C865        C866   1.418       .  A
C866        N870   1.436       .  S
C867        C872   1.417       .  A
C867        C876   1.403       .  A
N868        O883   1.263       .  A
N868        O884   1.263       .  A
N870        O881   1.263       .  A
N870        O882   1.263       .  A
C872        C873   1.409       .  A
C872        N877   1.439       .  S
C873        C874   1.402       .  A
C873        H878   1.084       .  S
C874        C875   1.409       .  A
C875        C876   1.399       .  A
C875        N879   1.431       .  S
C876        H880   1.085       .  S
N877        O887   1.263       .  A
N877        O888   1.263       .  A
N879        O885   1.262       .  A
N879        O886   1.262       .  A
C889        C890   1.406       .  A
C889        C894   1.405       .  A
C889        H899   1.084       .  S
C890        C895   1.489       .  S
C890        C891   1.414       .  A
C891        C892   1.403       .  A
C891        N896   1.437       .  S
C892        C893   1.406       .  A
C892        H897   1.084       .  S
C893        C894   1.413       .  A
C894        N898   1.430       .  S
C895        C900   1.410       .  A
C895        C904   1.406       .  A
N896        O911   1.262       .  A
N896        O912   1.263       .  A
N898        O909   1.262       .  A
N898        O910   1.262       .  A
C900        C901   1.398       .  A
C900        N905   1.434       .  S
C901        C902   1.406       .  A
C901        H906   1.085       .  S
C902        C903   1.416       .  A
C903        C904   1.410       .  A
C903        N907   1.434       .  S
C904        H908   1.084       .  S
N905        O915   1.262       .  A
N905        O916   1.263       .  A
N907        O913   1.262       .  A
N907        O914   1.262       .  A
C917        C918   1.402       .  A
C917        C922   1.405       .  A
C917        H927   1.084       .  S
C918        C923   1.483       .  S
C918        C919   1.407       .  A
C919        C920   1.401       .  A
C919        N924   1.430       .  S
C920        C921   1.407       .  A
C920        H925   1.084       .  S
C921        C922   1.415       .  A
C922        N926   1.431       .  S
C923        C928   1.410       .  A
C923        C932   1.404       .  A
N924        O939   1.262       .  A
N924        O940   1.262       .  A
N926        O937   1.262       .  A
N926        O938   1.262       .  A
C928        C929   1.400       .  A
C928        N933   1.438       .  S
C929        C930   1.408       .  A
C929        H934   1.084       .  S
C930        C931   1.418       .  A
C931        C932   1.410       .  A
C931        N935   1.434       .  S
C932        H936   1.084       .  S
N933        O943   1.262       .  A
N933        O944   1.263       .  A
N935        O941   1.262       .  A
N935        O942   1.262       .  A
C945        C946   1.400       .  A
C945        C950   1.402       .  A
C945        H955   1.084       .  S
C946        C951   1.484       .  S
C946        C947   1.414       .  A
C947        C948   1.407       .  A
C947        N952   1.440       .  S
C948        C949   1.408   1_554  A
C948        H953   1.083       .  S
C949        C950   1.419   1_556  A
C950        N954   1.436   1_554  S
C951        C956   1.414       .  A
C951        C960   1.401       .  A
N952        O967   1.263       .  A
N952        O968   1.263       .  A
N954        O965   1.263       .  A
N954        O966   1.263       .  A
C956        C957   1.406       .  A
C956        N961   1.439       .  S
C957        C958   1.409       .  A
C957        H962   1.084       .  S
C958        C959   1.418       .  A
C959        C960   1.401       .  A
C959        N963   1.431       .  S
C960        H964   1.085       .  S
N961        O971   1.262       .  A
N961        O972   1.263       .  A
N963        O969   1.262       .  A
N963        O970   1.262       .  A
C973        C974   1.404       .  A
C973        C978   1.403       .  A
C973        H983   1.084       .  S
C974        C979   1.496       .  S
C974        C975   1.417       .  A
C975        C976   1.409       .  A
C975        N980   1.440       .  S
C976        C977   1.407       .  A
C976        H981   1.083       .  S
C977        C978   1.418       .  A
C978        N982   1.435       .  S
C979        C984   1.418       .  A
C979        C988   1.404       .  A
N980        O995   1.263       .  A
N980        O996   1.263       .  A
N982        O993   1.262       .  A
N982        O994   1.263       .  A
C984        C985   1.409       .  A
C984        N989   1.439       .  S
C985        C986   1.404       .  A
C985        H990   1.083       .  S
C986        C987   1.417       .  A
C987        C988   1.405       .  A
C987        N991   1.439       .  S
C988        H992   1.083       .  S
N989        O999   1.263       .  A
N989       O1000   1.263       .  A
N991        O997   1.263       .  A
N991        O998   1.263       .  A
C1001      C1002   1.402       .  A
C1001      C1006   1.401       .  A
C1001      H1011   1.085       .  S
C1002      C1007   1.483       .  S
C1002      C1003   1.412       .  A
C1003      C1004   1.403       .  A
C1003      N1008   1.440       .  S
C1004      C1005   1.410       .  A
C1004      H1009   1.083       .  S
C1005      C1006   1.417       .  A
C1006      N1010   1.432       .  S
C1007      C1012   1.413       .  A
C1007      C1016   1.403       .  A
N1008      O1023   1.263       .  A
N1008      O1024   1.263       .  A
N1010      O1021   1.262       .  A
N1010      O1022   1.262       .  A
C1012      C1013   1.403       .  A
C1012      N1017   1.439       .  S
C1013      C1014   1.405   1_554  A
C1013      H1018   1.084   1_554  S
C1014      C1015   1.412   1_556  A
C1015      C1016   1.402       .  A
C1015      N1019   1.434       .  S
C1016      H1020   1.085       .  S
N1017      O1027   1.263       .  A
N1017      O1028   1.263       .  A
N1019      O1025   1.262   1_554  A
N1019      O1026   1.263       .  A
C1029      C1030   1.401       .  A
C1029      C1034   1.405   1_655  A
C1029      H1039   1.084       .  S
C1030      C1035   1.486       .  S
C1030      C1031   1.416   1_655  A
C1031      C1032   1.408       .  A
C1031      N1036   1.439   1_455  S
C1032      C1033   1.405       .  A
C1032      H1037   1.084       .  S
C1033      C1034   1.416       .  A
C1034      N1038   1.438       .  S
C1035      C1040   1.416       .  A
C1035      C1044   1.397       .  A
N1036      O1051   1.262       .  A
N1036      O1052   1.262   1_655  A
N1038      O1049   1.263       .  A
N1038      O1050   1.263       .  A
C1040      C1041   1.414       .  A
C1040      N1045   1.440       .  S
C1041      C1042   1.409       .  A
C1041      H1046   1.084       .  S
C1042      C1043   1.416       .  A
C1043      C1044   1.399       .  A
C1043      N1047   1.430       .  S
C1044      H1048   1.085       .  S
N1045      O1055   1.263       .  A
N1045      O1056   1.262       .  A
N1047      O1053   1.261       .  A
N1047      O1054   1.263       .  A
C1057      C1058   1.403       .  A
C1057      C1062   1.404       .  A
C1057      H1067   1.085       .  S
C1058      C1063   1.487       .  S
C1058      C1059   1.412       .  A
C1059      C1060   1.403       .  A
C1059      N1064   1.437       .  S
C1060      C1061   1.408       .  A
C1060      H1065   1.084       .  S
C1061      C1062   1.419       .  A
C1062      N1066   1.434       .  S
C1063      C1068   1.414       .  A
C1063      C1072   1.403       .  A
N1064      O1079   1.262       .  A
N1064      O1080   1.263       .  A
N1066      O1077   1.263       .  A
N1066      O1078   1.262       .  A
C1068      C1069   1.405       .  A
C1068      N1073   1.438       .  S
C1069      C1070   1.406       .  A
C1069      H1074   1.085       .  S
C1070      C1071   1.418       .  A
C1071      C1072   1.404       .  A
C1071      N1075   1.437       .  S
C1072      H1076   1.085       .  S
N1073      O1083   1.263       .  A
N1073      O1084   1.263       .  A
N1075      O1081   1.263       .  A
N1075      O1082   1.263       .  A
C1085      C1086   1.403       .  A
C1085      C1090   1.403       .  A
C1085      H1095   1.084       .  S
C1086      C1091   1.491       .  S
C1086      C1087   1.415       .  A
C1087      C1088   1.405       .  A
C1087      N1092   1.441       .  S
C1088      C1089   1.409       .  A
C1088      H1093   1.084       .  S
C1089      C1090   1.418       .  A
C1090      N1094   1.433       .  S
C1091      C1096   1.417       .  A
C1091      C1100   1.401       .  A
N1092      O1107   1.263       .  A
N1092      O1108   1.263       .  A
N1094      O1105   1.262       .  A
N1094      O1106   1.262       .  A
C1096      C1097   1.410       .  A
C1096      N1101   1.439       .  S
C1097      C1098   1.407       .  A
C1097      H1102   1.083       .  S
C1098      C1099   1.416       .  A
C1099      C1100   1.397       .  A
C1099      N1103   1.432       .  S
C1100      H1104   1.084       .  S
N1101      O1111   1.263       .  A
N1101      O1112   1.263       .  A
N1103      O1109   1.262       .  A
N1103      O1110   1.262       .  A
C1113      C1114   1.403       .  A
C1113      C1118   1.401       .  A
C1113      H1123   1.085       .  S
C1114      C1119   1.490       .  S
C1114      C1115   1.417       .  A
C1115      C1116   1.409       .  A
C1115      N1120   1.439       .  S
C1116      C1117   1.404       .  A
C1116      H1121   1.084       .  S
C1117      C1118   1.415       .  A
C1118      N1122   1.439       .  S
C1119      C1124   1.416       .  A
C1119      C1128   1.402       .  A
N1120      O1135   1.263       .  A
N1120      O1136   1.263       .  A
N1122      O1133   1.263       .  A
N1122      O1134   1.263       .  A
C1124      C1125   1.407       .  A
C1124      N1129   1.440       .  S
C1125      C1126   1.407       .  A
C1125      H1130   1.084       .  S
C1126      C1127   1.418       .  A
C1127      C1128   1.401       .  A
C1127      N1131   1.433       .  S
C1128      H1132   1.085       .  S
N1129      O1139   1.263       .  A
N1129      O1140   1.263       .  A
N1131      O1137   1.262       .  A
N1131      O1138   1.262       .  A
C1141      C1142   1.401       .  A
C1141      C1146   1.401       .  A
C1141      H1151   1.086       .  S
C1142      C1147   1.482       .  S
C1142      C1143   1.414       .  A
C1143      C1144   1.406       .  A
C1143      N1148   1.441       .  S
C1144      C1145   1.407       .  A
C1144      H1149   1.085       .  S
C1145      C1146   1.417       .  A
C1146      N1150   1.436       .  S
C1147      C1152   1.413       .  A
C1147      C1156   1.401       .  A
N1148      O1163   1.263       .  A
N1148      O1164   1.263       .  A
N1150      O1161   1.262       .  A
N1150      O1162   1.263       .  A
C1152      C1153   1.404       .  A
C1152      N1157   1.440       .  S
C1153      C1154   1.406       .  A
C1153      H1158   1.084       .  S
C1154      C1155   1.418       .  A
C1155      C1156   1.403       .  A
C1155      N1159   1.437       .  S
C1156      H1160   1.085       .  S
N1157      O1167   1.263       .  A
N1157      O1168   1.263       .  A
N1159      O1165   1.263       .  A
N1159      O1166   1.263       .  A
C1169      C1170   1.401       .  A
C1169      C1174   1.400       .  A
C1169      H1179   1.084       .  S
C1170      C1175   1.489       .  S
C1170      C1171   1.416       .  A
C1171      C1172   1.410       .  A
C1171      N1176   1.438       .  S
C1172      C1173   1.407       .  A
C1172      H1177   1.083       .  S
C1173      C1174   1.416       .  A
C1174      N1178   1.432       .  S
C1175      C1180   1.416       .  A
C1175      C1184   1.403       .  A
N1176      O1191   1.263       .  A
N1176      O1192   1.263       .  A
N1178      O1189   1.262       .  A
N1178      O1190   1.262       .  A
C1180      C1181   1.407       .  A
C1180      N1185   1.439       .  S
C1181      C1182   1.404       .  A
C1181      H1186   1.084       .  S
C1182      C1183   1.416       .  A
C1183      C1184   1.405       .  A
C1183      N1187   1.440       .  S
C1184      H1188   1.084       .  S
N1185      O1195   1.263       .  A
N1185      O1196   1.263       .  A
N1187      O1193   1.263       .  A
N1187      O1194   1.263       .  A
C1197      C1198   1.400       .  A
C1197      C1202   1.403       .  A
C1197      H1207   1.084       .  S
C1198      C1203   1.482       .  S
C1198      C1199   1.412       .  A
C1199      C1200   1.404       .  A
C1199      N1204   1.441       .  S
C1200      C1201   1.411       .  A
C1200      H1205   1.083       .  S
C1201      C1202   1.420       .  A
C1202      N1206   1.432       .  S
C1203      C1208   1.413       .  A
C1203      C1212   1.402       .  A
N1204      O1219   1.263       .  A
N1204      O1220   1.263       .  A
N1206      O1217   1.262   1_655  A
N1206      O1218   1.262       .  A
C1208      C1209   1.402       .  A
C1208      N1213   1.440       .  S
C1209      C1210   1.408       .  A
C1209      H1214   1.083       .  S
C1210      C1211   1.417       .  A
C1211      C1212   1.403       .  A
C1211      N1215   1.429       .  S
C1212      H1216   1.084       .  S
N1213      O1223   1.263       .  A
N1213      O1224   1.263       .  A
N1215      O1221   1.262       .  A
N1215      O1222   1.262       .  A
C1225      C1226   1.405       .  A
C1225      C1230   1.407       .  A
C1225      H1235   1.084       .  S
C1226      C1231   1.493       .  S
C1226      C1227   1.414       .  A
C1227      C1228   1.401       .  A
C1227      N1232   1.439   1_455  S
C1228      C1229   1.409       .  A
C1228      H1233   1.083       .  S
C1229      C1230   1.418       .  A
C1230      N1234   1.432       .  S
C1231      C1236   1.418       .  A
C1231      C1240   1.405       .  A
N1232      O1247   1.263       .  A
N1232      O1248   1.263       .  A
N1234      O1245   1.262       .  A
N1234      O1246   1.262       .  A
C1236      C1237   1.409       .  A
C1236      N1241   1.438       .  S
C1237      C1238   1.403       .  A
C1237      H1242   1.084       .  S
C1238      C1239   1.413       .  A
C1239      C1240   1.402       .  A
C1239      N1243   1.439       .  S
C1240      H1244   1.084       .  S
N1241      O1251   1.263       .  A
N1241      O1252   1.263       .  A
N1243      O1249   1.263       .  A
N1243      O1250   1.263   1_455  A
C1253      C1254   1.402       .  A
C1253      C1258   1.399       .  A
C1253      H1263   1.085       .  S
C1254      C1259   1.487       .  S
C1254      C1255   1.415       .  A
C1255      C1256   1.404       .  A
C1255      N1260   1.439       .  S
C1256      C1257   1.408       .  A
C1256      H1261   1.084       .  S
C1257      C1258   1.416       .  A
C1258      N1262   1.430       .  S
C1259      C1264   1.416       .  A
C1259      C1268   1.403       .  A
N1260      O1275   1.263       .  A
N1260      O1276   1.263       .  A
N1262      O1273   1.262       .  A
N1262      O1274   1.262       .  A
C1264      C1265   1.403       .  A
C1264      N1269   1.439       .  S
C1265      C1266   1.404       .  A
C1265      H1270   1.085       .  S
C1266      C1267   1.416       .  A
C1267      C1268   1.402       .  A
C1267      N1271   1.437       .  S
C1268      H1272   1.085       .  S
N1269      O1279   1.263       .  A
N1269      O1280   1.263       .  A
N1271      O1277   1.263       .  A
N1271      O1278   1.263   1_565  A
C1281      C1282   1.407       .  A
C1281      C1286   1.407       .  A
C1281      H1291   1.084       .  S
C1282      C1287   1.487       .  S
C1282      C1283   1.412       .  A
C1283      C1284   1.401       .  A
C1283      N1288   1.434       .  S
C1284      C1285   1.403       .  A
C1284      H1289   1.084       .  S
C1285      C1286   1.411       .  A
C1286      N1290   1.429       .  S
C1287      C1292   1.413       .  A
C1287      C1296   1.404       .  A
N1288      O1303   1.262       .  A
N1288      O1304   1.262       .  A
N1290      O1301   1.262       .  A
N1290      O1302   1.262       .  A
C1292      C1293   1.402       .  A
C1292      N1297   1.439       .  S
C1293      C1294   1.408       .  A
C1293      H1298   1.083       .  S
C1294      C1295   1.418       .  A
C1295      C1296   1.408       .  A
C1295      N1299   1.433       .  S
C1296      H1300   1.084       .  S
N1297      O1307   1.263       .  A
N1297      O1308   1.262       .  A
N1299      O1305   1.262       .  A
N1299      O1306   1.262       .  A
C1309      C1310   1.405       .  A
C1309      C1314   1.410       .  A
C1309      H1319   1.084       .  S
C1310      C1315   1.488       .  S
C1310      C1311   1.413       .  A
C1311      C1312   1.404       .  A
C1311      N1316   1.439       .  S
C1312      C1313   1.408       .  A
C1312      H1317   1.084       .  S
C1313      C1314   1.417       .  A
C1314      N1318   1.434       .  S
C1315      C1320   1.414       .  A
C1315      C1324   1.405       .  A
N1316      O1331   1.263       .  A
N1316      O1332   1.263       .  A
N1318      O1329   1.262       .  A
N1318      O1330   1.262       .  A
C1320      C1321   1.404       .  A
C1320      N1325   1.437       .  S
C1321      C1322   1.405       .  A
C1321      H1326   1.084       .  S
C1322      C1323   1.412       .  A
C1323      C1324   1.406       .  A
C1323      N1327   1.429       .  S
C1324      H1328   1.084       .  S
N1325      O1335   1.262       .  A
N1325      O1336   1.262       .  A
N1327      O1333   1.262       .  A
N1327      O1334   1.262       .  A
C1337      C1338   1.403       .  A
C1337      C1342   1.403       .  A
C1337      H1347   1.085       .  S
C1338      C1343   1.488       .  S
C1338      C1339   1.416       .  A
C1339      C1340   1.405       .  A
C1339      N1344   1.440       .  S
C1340      C1341   1.405       .  A
C1340      H1345   1.084       .  S
C1341      C1342   1.417       .  A
C1342      N1346   1.437       .  S
C1343      C1348   1.413       .  A
C1343      C1352   1.401       .  A
N1344      O1359   1.263       .  A
N1344      O1360   1.263       .  A
N1346      O1357   1.263       .  A
N1346      O1358   1.263       .  A
C1348      C1349   1.405   1_556  A
C1348      N1353   1.438       .  S
C1349      C1350   1.410       .  A
C1349      H1354   1.084       .  S
C1350      C1351   1.418   1_554  A
C1351      C1352   1.400       .  A
C1351      N1355   1.429       .  S
C1352      H1356   1.085       .  S
N1353      O1363   1.263   1_556  A
N1353      O1364   1.263       .  A
N1355      O1361   1.262   1_556  A
N1355      O1362   1.262       .  A
C1365      C1366   1.404       .  A
C1365      C1370   1.401       .  A
C1365      H1375   1.085       .  S
C1366      C1371   1.492       .  S
C1366      C1367   1.417       .  A
C1367      C1368   1.406       .  A
C1367      N1372   1.438       .  S
C1368      C1369   1.405       .  A
C1368      H1373   1.085       .  S
C1369      C1370   1.417       .  A
C1370      N1374   1.435       .  S
C1371      C1376   1.415       .  A
C1371      C1380   1.404       .  A
N1372      O1387   1.263       .  A
N1372      O1388   1.263       .  A
N1374      O1385   1.263       .  A
N1374      O1386   1.263       .  A
C1376      C1377   1.402       .  A
C1376      N1381   1.438       .  S
C1377      C1378   1.409       .  A
C1377      H1382   1.084       .  S
C1378      C1379   1.420       .  A
C1379      C1380   1.404       .  A
C1379      N1383   1.432       .  S
C1380      H1384   1.085       .  S
N1381      O1391   1.263       .  A
N1381      O1392   1.263       .  A
N1383      O1389   1.262       .  A
N1383      O1390   1.262       .  A
C1393      C1394   1.404       .  A
C1393      C1398   1.407       .  A
C1393      H1403   1.084       .  S
C1394      C1399   1.480       .  S
C1394      C1395   1.405       .  A
C1395      C1396   1.397       .  A
C1395      N1400   1.429       .  S
C1396      C1397   1.406       .  A
C1396      H1401   1.085       .  S
C1397      C1398   1.414       .  A
C1398      N1402   1.433       .  S
C1399      C1404   1.407       .  A
C1399      C1408   1.402       .  A
N1400      O1415   1.262       .  A
N1400      O1416   1.262       .  A
N1402      O1413   1.262       .  A
N1402      O1414   1.262       .  A
C1404      C1405   1.398       .  A
C1404      N1409   1.436       .  S
C1405      C1406   1.410       .  A
C1405      H1410   1.083       .  S
C1406      C1407   1.419       .  A
C1407      C1408   1.407       .  A
C1407      N1411   1.431       .  S
C1408      H1412   1.084       .  S
N1409      O1419   1.262       .  A
N1409      O1420   1.263       .  A
N1411      O1417   1.262       .  A
N1411      O1418   1.262       .  A
C1421      C1422   1.400       .  A
C1421      C1426   1.404       .  A
C1421      H1431   1.084       .  S
C1422      C1427   1.487       .  S
C1422      C1423   1.415       .  A
C1423      C1424   1.410       .  A
C1423      N1428   1.437       .  S
C1424      C1425   1.406       .  A
C1424      H1429   1.084       .  S
C1425      C1426   1.418       .  A
C1426      N1430   1.437       .  S
C1427      C1432   1.414       .  A
C1427      C1436   1.398       .  A
N1428      O1443   1.262       .  A
N1428      O1444   1.262       .  A
N1430      O1441   1.263       .  A
N1430      O1442   1.263       .  A
C1432      C1433   1.412       .  A
C1432      N1437   1.436       .  S
C1433      C1434   1.408       .  A
C1433      H1438   1.084       .  S
C1434      C1435   1.421       .  A
C1435      C1436   1.400       .  A
C1435      N1439   1.434       .  S
C1436      H1440   1.085       .  S
N1437      O1447   1.262       .  A
N1437      O1448   1.262       .  A
N1439      O1445   1.263       .  A
N1439      O1446   1.262       .  A
C1449      C1450   1.404       .  A
C1449      C1454   1.405       .  A
C1449      H1459   1.085       .  S
C1450      C1455   1.486       .  S
C1450      C1451   1.412       .  A
C1451      C1452   1.401       .  A
C1451      N1456   1.439       .  S
C1452      C1453   1.408       .  A
C1452      H1457   1.084       .  S
C1453      C1454   1.417       .  A
C1454      N1458   1.436       .  S
C1455      C1460   1.411       .  A
C1455      C1464   1.403       .  A
N1456      O1471   1.263       .  A
N1456      O1472   1.263       .  A
N1458      O1469   1.263       .  A
N1458      O1470   1.263       .  A
C1460      C1461   1.403       .  A
C1460      N1465   1.436       .  S
C1461      C1462   1.407       .  A
C1461      H1466   1.084       .  S
C1462      C1463   1.418       .  A
C1463      C1464   1.404       .  A
C1463      N1467   1.436       .  S
C1464      H1468   1.085       .  S
N1465      O1475   1.262       .  A
N1465      O1476   1.263       .  A
N1467      O1473   1.263       .  A
N1467      O1474   1.263       .  A
C1477      C1478   1.405       .  A
C1477      C1482   1.404       .  A
C1477      H1487   1.085       .  S
C1478      C1483   1.484       .  S
C1478      C1479   1.414       .  A
C1479      C1480   1.397       .  A
C1479      N1484   1.439       .  S
C1480      C1481   1.406       .  A
C1480      H1485   1.084       .  S
C1481      C1482   1.413       .  A
C1482      N1486   1.429       .  S
C1483      C1488   1.412       .  A
C1483      C1492   1.401       .  A
N1484      O1499   1.263       .  A
N1484      O1500   1.263       .  A
N1486      O1497   1.262       .  A
N1486      O1498   1.262       .  A
C1488      C1489   1.404       .  A
C1488      N1493   1.435       .  S
C1489      C1490   1.408       .  A
C1489      H1494   1.084       .  S
C1490      C1491   1.418       .  A
C1491      C1492   1.398       .  A
C1491      N1495   1.433       .  S
C1492      H1496   1.085       .  S
N1493      O1503   1.262       .  A
N1493      O1504   1.262       .  A
N1495      O1501   1.262       .  A
N1495      O1502   1.262       .  A
C1505      C1506   1.404       .  A
C1505      C1510   1.408       .  A
C1505      H1515   1.084       .  S
C1506      C1511   1.481       .  S
C1506      C1507   1.410       .  A
C1507      C1508   1.398       .  A
C1507      N1512   1.438       .  S
C1508      C1509   1.408       .  A
C1508      H1513   1.084       .  S
C1509      C1510   1.417       .  A
C1510      N1514   1.432       .  S
C1511      C1516   1.409       .  A
C1511      C1520   1.402       .  A
N1512      O1527   1.263       .  A
N1512      O1528   1.262       .  A
N1514      O1525   1.262       .  A
N1514      O1526   1.262       .  A
C1516      C1517   1.403       .  A
C1516      N1521   1.437       .  S
C1517      C1518   1.411       .  A
C1517      H1522   1.084       .  S
C1518      C1519   1.418       .  A
C1519      C1520   1.404       .  A
C1519      N1523   1.433       .  S
C1520      H1524   1.084       .  S
N1521      O1531   1.262       .  A
N1521      O1532   1.263       .  A
N1523      O1529   1.262       .  A
N1523      O1530   1.262       .  A
C1533      C1534   1.404       .  A
C1533      C1538   1.402       .  A
C1533      H1543   1.085       .  S
C1534      C1539   1.486       .  S
C1534      C1535   1.415       .  A
C1535      C1536   1.401       .  A
C1535      N1540   1.439       .  S
C1536      C1537   1.404       .  A
C1536      H1541   1.085       .  S
C1537      C1538   1.414       .  A
C1538      N1542   1.436       .  S
C1539      C1544   1.414       .  A
C1539      C1548   1.403       .  A
N1540      O1555   1.263       .  A
N1540      O1556   1.263       .  A
N1542      O1553   1.263       .  A
N1542      O1554   1.263       .  A
C1544      C1545   1.402       .  A
C1544      N1549   1.438       .  S
C1545      C1546   1.408       .  A
C1545      H1550   1.084       .  S
C1546      C1547   1.418       .  A
C1547      C1548   1.400       .  A
C1547      N1551   1.432       .  S
C1548      H1552   1.085       .  S
N1549      O1559   1.263       .  A
N1549      O1560   1.263       .  A
N1551      O1557   1.262       .  A
N1551      O1558   1.262       .  A
C1561      C1562   1.406       .  A
C1561      C1566   1.411       .  A
C1561      H1571   1.083       .  S
C1562      C1567   1.487   1_556  S
C1562      C1563   1.412       .  A
C1563      C1564   1.398       .  A
C1563      N1568   1.439       .  S
C1564      C1565   1.404       .  A
C1564      H1569   1.084       .  S
C1565      C1566   1.417       .  A
C1566      N1570   1.438       .  S
C1567      C1572   1.414       .  A
C1567      C1576   1.403       .  A
N1568      O1583   1.263       .  A
N1568      O1584   1.263   1_556  A
N1570      O1581   1.263       .  A
N1570      O1582   1.263       .  A
C1572      C1573   1.408       .  A
C1572      N1577   1.438       .  S
C1573      C1574   1.407       .  A
C1573      H1578   1.084       .  S
C1574      C1575   1.415       .  A
C1575      C1576   1.401       .  A
C1575      N1579   1.438       .  S
C1576      H1580   1.084       .  S
N1577      O1587   1.263       .  A
N1577      O1588   1.262       .  A
N1579      O1585   1.263       .  A
N1579      O1586   1.263       .  A
C1589      C1590   1.401       .  A
C1589      C1594   1.404       .  A
C1589      H1599   1.084       .  S
C1590      C1595   1.488       .  S
C1590      C1591   1.415       .  A
C1591      C1592   1.409       .  A
C1591      N1596   1.440       .  S
C1592      C1593   1.407       .  A
C1592      H1597   1.083       .  S
C1593      C1594   1.419       .  A
C1594      N1598   1.437       .  S
C1595      C1600   1.417       .  A
C1595      C1604   1.402       .  A
N1596      O1611   1.263       .  A
N1596      O1612   1.263       .  A
N1598      O1609   1.263       .  A
N1598      O1610   1.263       .  A
C1600      C1601   1.411       .  A
C1600      N1605   1.439       .  S
C1601      C1602   1.404       .  A
C1601      H1606   1.083       .  S
C1602      C1603   1.413       .  A
C1603      C1604   1.402       .  A
C1603      N1607   1.437       .  S
C1604      H1608   1.084       .  S
N1605      O1615   1.263       .  A
N1605      O1616   1.263       .  A
N1607      O1613   1.263       .  A
N1607      O1614   1.263       .  A
C1617      C1618   1.401       .  A
C1617      C1622   1.402       .  A
C1617      H1627   1.092       .  S
C1618      C1623   1.490       .  S
C1618      C1619   1.413       .  A
C1619      C1620   1.405       .  A
C1619      N1624   1.438       .  S
C1620      C1621   1.411       .  A
C1620      H1625   1.091       .  S
C1621      C1622   1.420       .  A
C1622      N1626   1.430       .  S
C1623      C1628   1.415       .  A
C1623      C1632   1.403       .  A
N1624      O1639   1.263       .  A
N1624      O1640   1.262       .  A
N1626      O1637   1.262       .  A
N1626      O1638   1.262       .  A
C1628      C1629   1.405       .  A
C1628      N1633   1.439       .  S
C1629      C1630   1.406       .  A
C1629      H1634   1.086       .  S
C1630      C1631   1.418       .  A
C1631      C1632   1.404       .  A
C1631      N1635   1.436       .  S
C1632      H1636   1.087       .  S
N1633      O1643   1.263       .  A
N1633      O1644   1.263       .  A
N1635      O1641   1.263       .  A
N1635      O1642   1.263       .  A
C1645      C1646   1.398       .  A
C1645      C1650   1.399       .  A
C1645      H1655   1.084       .  S
C1646      C1651   1.480       .  S
C1646      C1647   1.413       .  A
C1647      C1648   1.405       .  A
C1647      N1652   1.439       .  S
C1648      C1649   1.408       .  A
C1648      H1653   1.083       .  S
C1649      C1650   1.418       .  A
C1650      N1654   1.430       .  S
C1651      C1656   1.411       .  A
C1651      C1660   1.402       .  A
N1652      O1667   1.263       .  A
N1652      O1668   1.263       .  A
N1654      O1665   1.262       .  A
N1654      O1666   1.262       .  A
C1656      C1657   1.401       .  A
C1656      N1661   1.439       .  S
C1657      C1658   1.410       .  A
C1657      H1662   1.083       .  S
C1658      C1659   1.416       .  A
C1659      C1660   1.403       .  A
C1659      N1663   1.430       .  S
C1660      H1664   1.084       .  S
N1661      O1671   1.263       .  A
N1661      O1672   1.263       .  A
N1663      O1669   1.262       .  A
N1663      O1670   1.262       .  A
C1673      C1674   1.406       .  A
C1673      C1678   1.411       .  A
C1673      H1683   1.083       .  S
C1674      C1679   1.484       .  S
C1674      C1675   1.410       .  A
C1675      C1676   1.398       .  A
C1675      N1680   1.440       .  S
C1676      C1677   1.406       .  A
C1676      H1681   1.081       .  S
C1677      C1678   1.417       .  A
C1678      N1682   1.435       .  S
C1679      C1684   1.410       .  A
C1679      C1688   1.403       .  A
N1680      O1695   1.263       .  A
N1680      O1696   1.262       .  A
N1682      O1693   1.262       .  A
N1682      O1694   1.262       .  A
C1684      C1685   1.405       .  A
C1684      N1689   1.438       .  S
C1685      C1686   1.410       .  A
C1685      H1690   1.084       .  S
C1686      C1687   1.419       .  A
C1687      C1688   1.406       .  A
C1687      N1691   1.434       .  S
C1688      H1692   1.085       .  S
N1689      O1699   1.262       .  A
N1689      O1700   1.263       .  A
N1691      O1697   1.262       .  A
N1691      O1698   1.262       .  A
C1701      C1702   1.400       .  A
C1701      C1706   1.402       .  A
C1701      H1711   1.084       .  S
C1702      C1707   1.487       .  S
C1702      C1703   1.416       .  A
C1703      C1704   1.411       .  A
C1703      N1708   1.440       .  S
C1704      C1705   1.407       .  A
C1704      H1709   1.083       .  S
C1705      C1706   1.419       .  A
C1706      N1710   1.437       .  S
C1707      C1712   1.408       .  A
C1707      C1716   1.400       .  A
N1708      O1723   1.262       .  A
N1708      O1724   1.263       .  A
N1710      O1721   1.263       .  A
N1710      O1722   1.263       .  A
C1712      C1713   1.406       .  A
C1712      N1717   1.430       .  S
C1713      C1714   1.409       .  A
C1713      H1718   1.084       .  S
C1714      C1715   1.421       .  A
C1715      C1716   1.406       .  A
C1715      N1719   1.438       .  S
C1716      H1720   1.084       .  S
N1717      O1727   1.262       .  A
N1717      O1728   1.262       .  A
N1719      O1725   1.263       .  A
N1719      O1726   1.263       .  A
C1729      C1730   1.402       .  A
C1729      C1734   1.398       .  A
C1729      H1739   1.085       .  S
C1730      C1735   1.487       .  S
C1730      C1731   1.414       .  A
C1731      C1732   1.406       .  A
C1731      N1736   1.438       .  S
C1732      C1733   1.409       .  A
C1732      H1737   1.084       .  S
C1733      C1734   1.415       .  A
C1734      N1738   1.430       .  S
C1735      C1740   1.414       .  A
C1735      C1744   1.403       .  A
N1736      O1751   1.263       .  A
N1736      O1752   1.263       .  A
N1738      O1749   1.262       .  A
N1738      O1750   1.261       .  A
C1740      C1741   1.403       .  A
C1740      N1745   1.439       .  S
C1741      C1742   1.408       .  A
C1741      H1746   1.084       .  S
C1742      C1743   1.414       .  A
C1743      C1744   1.402       .  A
C1743      N1747   1.427       .  S
C1744      H1748   1.085       .  S
N1745      O1755   1.263       .  A
N1745      O1756   1.263       .  A
N1747      O1753   1.261       .  A
N1747      O1754   1.262       .  A
C1757      C1758   1.403       .  A
C1757      C1762   1.404       .  A
C1757      H1767   1.084       .  S
C1758      C1763   1.487       .  S
C1758      C1759   1.414       .  A
C1759      C1760   1.405       .  A
C1759      N1764   1.438       .  S
C1760      C1761   1.405       .  A
C1760      H1765   1.084       .  S
C1761      C1762   1.415       .  A
C1762      N1766   1.438       .  S
C1763      C1768   1.417       .  A
C1763      C1772   1.401       .  A
N1764      O1779   1.263       .  A
N1764      O1780   1.263       .  A
N1766      O1777   1.263       .  A
N1766      O1778   1.263       .  A
C1768      C1769   1.411       .  A
C1768      N1773   1.439       .  S
C1769      C1770   1.403       .  A
C1769      H1774   1.084       .  S
C1770      C1771   1.413       .  A
C1771      C1772   1.399       .  A
C1771      N1775   1.436       .  S
C1772      H1776   1.084       .  S
N1773      O1783   1.263       .  A
N1773      O1784   1.263       .  A
N1775      O1781   1.262       .  A
N1775      O1782   1.263       .  A
C1785      C1786   1.402       .  A
C1785      C1790   1.409       .  A
C1785      H1795   1.084       .  S
C1786      C1791   1.484       .  S
C1786      C1787   1.405       .  A
C1787      C1788   1.399       .  A
C1787      N1792   1.433       .  S
C1788      C1789   1.412       .  A
C1788      H1793   1.084       .  S
C1789      C1790   1.420       .  A
C1790      N1794   1.432       .  S
C1791      C1796   1.413       .  A
C1791      C1800   1.403       .  A
N1792      O1807   1.262       .  A
N1792      O1808   1.262       .  A
N1794      O1805   1.262       .  A
N1794      O1806   1.262       .  A
C1796      C1797   1.405       .  A
C1796      N1801   1.439       .  S
C1797      C1798   1.407       .  A
C1797      H1802   1.084       .  S
C1798      C1799   1.418       .  A
C1799      C1800   1.408       .  A
C1799      N1803   1.439       .  S
C1800      H1804   1.084       .  S
N1801      O1811   1.262       .  A
N1801      O1812   1.263       .  A
N1803      O1809   1.263       .  A
N1803      O1810   1.263       .  A
C1813      C1814   1.400       .  A
C1813      C1818   1.401       .  A
C1813      H1823   1.084       .  S
C1814      C1819   1.479       .  S
C1814      C1815   1.411       .  A
C1815      C1816   1.404       .  A
C1815      N1820   1.438       .  S
C1816      C1817   1.408       .  A
C1816      H1821   1.084       .  S
C1817      C1818   1.417       .  A
C1818      N1822   1.431       .  S
C1819      C1824   1.412       .  A
C1819      C1828   1.400       .  A
N1820      O1835   1.263       .  A
N1820      O1836   1.262       .  A
N1822      O1833   1.262       .  A
N1822      O1834   1.262       .  A
C1824      C1825   1.404       .  A
C1824      N1829   1.439       .  S
C1825      C1826   1.406       .  A
C1825      H1830   1.084       .  S
C1826      C1827   1.416       .  A
C1827      C1828   1.402       .  A
C1827      N1831   1.436       .  S
C1828      H1832   1.084       .  S
N1829      O1839   1.263       .  A
N1829      O1840   1.263       .  A
N1831      O1837   1.262       .  A
N1831      O1838   1.263       .  A
C1841      C1842   1.402       .  A
C1841      C1846   1.409       .  A
C1841      H1851   1.084       .  S
C1842      C1847   1.487       .  S
C1842      C1843   1.412       .  A
C1843      C1844   1.400       .  A
C1843      N1848   1.440       .  S
C1844      C1845   1.411       .  A
C1844      H1849   1.083       .  S
C1845      C1846   1.421       .  A
C1846      N1850   1.433       .  S
C1847      C1852   1.415   1_655  A
C1847      C1856   1.404   1_655  A
N1848      O1863   1.263       .  A
N1848      O1864   1.263       .  A
N1850      O1861   1.262       .  A
N1850      O1862   1.263       .  A
C1852      C1853   1.402       .  A
C1852      N1857   1.441   1_455  S
C1853      C1854   1.406       .  A
C1853      H1858   1.084       .  S
C1854      C1855   1.416       .  A
C1855      C1856   1.407       .  A
C1855      N1859   1.434       .  S
C1856      H1860   1.084       .  S
N1857      O1867   1.263       .  A
N1857      O1868   1.263       .  A
N1859      O1865   1.262       .  A
N1859      O1866   1.262       .  A
C1869      C1870   1.401       .  A
C1869      C1874   1.403       .  A
C1869      H1879   1.085       .  S
C1870      C1875   1.482       .  S
C1870      C1871   1.407       .  A
C1871      C1872   1.402       .  A
C1871      N1876   1.429       .  S
C1872      C1873   1.407       .  A
C1872      H1877   1.085       .  S
C1873      C1874   1.417       .  A
C1874      N1878   1.435       .  S
C1875      C1880   1.408       .  A
C1875      C1884   1.400       .  A
N1876      O1891   1.262       .  A
N1876      O1892   1.262       .  A
N1878      O1889   1.263       .  A
N1878      O1890   1.262       .  A
C1880      C1881   1.403       .  A
C1880      N1885   1.432       .  S
C1881      C1882   1.409       .  A
C1881      H1886   1.084       .  S
C1882      C1883   1.419       .  A
C1883      C1884   1.402       .  A
C1883      N1887   1.429       .  S
C1884      H1888   1.085       .  S
N1885      O1895   1.262       .  A
N1885      O1896   1.262       .  A
N1887      O1893   1.262       .  A
N1887      O1894   1.262       .  A
C1897      C1898   1.403       .  A
C1897      C1902   1.409       .  A
C1897      H1907   1.084       .  S
C1898      C1903   1.484       .  S
C1898      C1899   1.409       .  A
C1899      C1900   1.398       .  A
C1899      N1904   1.431       .  S
C1900      C1901   1.404       .  A
C1900      H1905   1.085       .  S
C1901      C1902   1.417       .  A
C1902      N1906   1.434       .  S
C1903      C1908   1.407       .  A
C1903      C1912   1.403       .  A
N1904      O1919   1.262       .  A
N1904      O1920   1.262       .  A
N1906      O1917   1.262       .  A
N1906      O1918   1.262       .  A
C1908      C1909   1.400       .  A
C1908      N1913   1.430       .  S
C1909      C1910   1.408       .  A
C1909      H1914   1.084       .  S
C1910      C1911   1.419       .  A
C1911      C1912   1.406       .  A
C1911      N1915   1.434       .  S
C1912      H1916   1.084       .  S
N1913      O1923   1.262       .  A
N1913      O1924   1.262       .  A
N1915      O1921   1.262       .  A
N1915      O1922   1.262       .  A
C1925      C1926   1.403       .  A
C1925      C1930   1.409       .  A
C1925      H1935   1.084       .  S
C1926      C1931   1.481       .  S
C1926      C1927   1.404       .  A
C1927      C1928   1.393       .  A
C1927      N1932   1.432       .  S
C1928      C1929   1.410       .  A
C1928      H1933   1.084       .  S
C1929      C1930   1.420       .  A
C1930      N1934   1.430       .  S
C1931      C1936   1.411       .  A
C1931      C1940   1.399       .  A
N1932      O1947   1.262       .  A
N1932      O1948   1.262       .  A
N1934      O1945   1.262       .  A
N1934      O1946   1.262       .  A
C1936      C1937   1.407       .  A
C1936      N1941   1.437       .  S
C1937      C1938   1.410       .  A
C1937      H1942   1.084       .  S
C1938      C1939   1.421       .  A
C1939      C1940   1.399       .  A
C1939      N1943   1.434       .  S
C1940      H1944   1.085       .  S
N1941      O1951   1.262       .  A
N1941      O1952   1.262       .  A
N1943      O1949   1.262       .  A
N1943      O1950   1.263       .  A
C1953      C1954   1.402       .  A
C1953      C1958   1.400       .  A
C1953      H1963   1.084       .  S
C1954      C1959   1.486       .  S
C1954      C1955   1.417       .  A
C1955      C1956   1.405       .  A
C1955      N1960   1.439       .  S
C1956      C1957   1.405       .  A
C1956      H1961   1.084       .  S
C1957      C1958   1.416       .  A
C1958      N1962   1.437       .  S
C1959      C1964   1.417       .  A
C1959      C1968   1.405       .  A
N1960      O1975   1.262       .  A
N1960      O1976   1.263       .  A
N1962      O1973   1.263       .  A
N1962      O1974   1.263       .  A
C1964      C1965   1.405       .  A
C1964      N1969   1.440       .  S
C1965      C1966   1.404       .  A
C1965      H1970   1.084       .  S
C1966      C1967   1.407       .  A
C1967      C1968   1.398       .  A
C1967      N1971   1.429       .  S
C1968      H1972   1.084       .  S
N1969      O1979   1.263       .  A
N1969      O1980   1.263       .  A
N1971      O1977   1.262       .  A
N1971      O1978   1.262       .  A
C1981      C1982   1.403       .  A
C1981      C1986   1.410       .  A
C1981      H1991   1.084       .  S
C1982      C1987   1.482   1_565  S
C1982      C1983   1.408       .  A
C1983      C1984   1.398       .  A
C1983      N1988   1.432       .  S
C1984      C1985   1.404       .  A
C1984      H1989   1.085       .  S
C1985      C1986   1.418       .  A
C1986      N1990   1.438       .  S
C1987      C1992   1.407       .  A
C1987      C1996   1.402       .  A
N1988      O2003   1.262       .  A
N1988      O2004   1.262       .  A
N1990      O2001   1.262       .  A
N1990      O2002   1.263       .  A
C1992      C1993   1.399       .  A
C1992      N1997   1.434   1_545  S
C1993      C1994   1.408       .  A
C1993      H1998   1.084       .  S
C1994      C1995   1.420       .  A
C1995      C1996   1.409       .  A
C1995      N1999   1.435       .  S
C1996      H2000   1.084       .  S
N1997      O2007   1.262       .  A
N1997      O2008   1.262   1_565  A
N1999      O2005   1.262       .  A
N1999      O2006   1.262       .  A
