geometry optimzed in LAMMPS
_audit_creation_date              2020-11-30 
_audit_creation_method            'lammps2cif' 
_symmetry_space_group_name_H-M    'P1' 
_symmetry_Int_Tables_number       1 
_symmetry_cell_setting            triclinic 
loop_ 
_symmetry_equiv_pos_as_xyz 
  x,y,z 
_cell_length_a                    44.47580695750171 
_cell_length_b                    44.46679172315 
_cell_length_c                    44.602786168204034 
_cell_angle_alpha                 90.17527829029075 
_cell_angle_beta                  89.75251257316326 
_cell_angle_gamma                 89.95975275992328 
loop_ 
_atom_site_label 
_atom_site_type_symbol 
_atom_site_fract_x 
_atom_site_fract_y 
_atom_site_fract_z 
_atom_site_charge 
C1          C  0.64786088  0.13339079  0.86571630     0.04990
C2          C  0.64246649  0.12377179  0.83620288    -0.11160
C3          C  0.64113354  0.14461711  0.81268510     0.02490
C4          C  0.64424770  0.17530040  0.81929359    -0.09680
C5          C  0.64920399  0.18533681  0.84867449     0.04990
C6          C  0.65117726  0.16420966  0.87192987    -0.09100
H7          H  0.63983082  0.09998111  0.83157166     0.10580
H8          H  0.64368149  0.19158293  0.80128956     0.08110
H9          H  0.65552617  0.17162962  0.89466064     0.07960
C10         C  0.87765439  0.13296066  0.63420209     0.04990
C11         C  0.84692756  0.12512906  0.63332617    -0.11160
C12         C  0.82486411  0.14755539  0.63081615     0.02490
C13         C  0.83374136  0.17750726  0.62766411    -0.09680
C14         C  0.86386371  0.18589480  0.63044820     0.04990
C15         C  0.88596402  0.16355127  0.63315491    -0.09100
H16         H  0.84021749  0.10188365  0.63612456     0.10580
H17         H  0.81670392  0.19486133  0.62573842     0.08110
H18         H  0.90934684  0.16996139  0.63540026     0.07960
C19         C  0.88058279  0.36892709  0.86792234     0.04990
C20         C  0.85010837  0.37064769  0.87607146    -0.11160
C21         C  0.82763766  0.37090621  0.85405652     0.02490
C22         C  0.83616241  0.36945169  0.82373749    -0.09680
C23         C  0.86656049  0.36948061  0.81511860     0.04990
C24         C  0.88867640  0.36921410  0.83746574    -0.09100
H25         H  0.84401932  0.37183350  0.89958241     0.10580
H26         H  0.81897804  0.36757263  0.80671172     0.08110
H27         H  0.91224207  0.36882747  0.83125120     0.07960
C28         C  0.64711051  0.36544358  0.86556878     0.04990
C29         C  0.64088710  0.33445413  0.86423564    -0.11160
C30         C  0.66448116  0.31347093  0.86530582     0.02490
C31         C  0.69400975  0.32373417  0.86871734    -0.09680
C32         C  0.70060211  0.35449228  0.87018540     0.04990
C33         C  0.67695655  0.37534827  0.86851800    -0.09100
H34         H  0.61796003  0.32682701  0.86122982     0.10580
H35         H  0.71219592  0.30751116  0.86912163     0.08110
H36         H  0.68167036  0.39923088  0.86952270     0.07960
C37         C  0.87966715  0.36576392  0.63527236     0.04990
C38         C  0.87834934  0.33498409  0.62794175    -0.11160
C39         C  0.88086296  0.31317440  0.65050997     0.02490
C40         C  0.88492589  0.32247740  0.68027841    -0.09680
C41         C  0.88528432  0.35296610  0.68814180     0.04990
C42         C  0.88315885  0.37454059  0.66537877    -0.09100
H43         H  0.87491596  0.32811178  0.60489135     0.10580
H44         H  0.88633320  0.30566138  0.69772090     0.08110
H45         H  0.88364856  0.39823590  0.67109020     0.07960
C46         C  0.64541391  0.13289965  0.63328163     0.04990
C47         C  0.63547393  0.12956977  0.66301223    -0.11160
C48         C  0.65628795  0.12676556  0.68643090     0.02490
C49         C  0.68708990  0.12716901  0.67954158    -0.09680
C50         C  0.69734522  0.13070956  0.65000301     0.04990
C51         C  0.67633459  0.13319657  0.62679334    -0.09100
H52         H  0.61156310  0.12909050  0.66777456     0.10580
H53         H  0.70338256  0.12590919  0.69747017     0.08110
H54         H  0.68392910  0.13643921  0.60391184     0.07960
C55         C  0.14611392  0.36443417  0.86693865     0.04990
C56         C  0.13585269  0.36888504  0.83756327    -0.11160
C57         C  0.15635417  0.37086056  0.81362094     0.02490
C58         C  0.18721810  0.36870668  0.81963978    -0.09680
C59         C  0.19785713  0.36412176  0.84881584     0.04990
C60         C  0.17709091  0.36218537  0.87256192    -0.09100
H61         H  0.11193095  0.37077940  0.83346204     0.10580
H62         H  0.20320252  0.36971780  0.80127908     0.08110
H63         H  0.18486224  0.35823941  0.89519269     0.07960
C64         C  0.14594567  0.13436110  0.63589201     0.04990
C65         C  0.17659380  0.12686467  0.63281745    -0.11160
C66         C  0.19819785  0.14946635  0.62813099     0.02490
C67         C  0.18841640  0.17923309  0.62487100    -0.09680
C68         C  0.15861019  0.18732677  0.63071947     0.04990
C69         C  0.13713333  0.16479022  0.63577256    -0.09100
H70         H  0.18351622  0.10365514  0.63523115     0.10580
H71         H  0.20462054  0.19685201  0.62030133     0.08110
H72         H  0.11390072  0.17086118  0.64003938     0.07960
C73         C  0.37748868  0.13093853  0.86621999     0.04990
C74         C  0.37472871  0.12401716  0.83559366    -0.11160
C75         C  0.37603085  0.14701102  0.81414199     0.02490
C76         C  0.37984876  0.17683160  0.82361198    -0.09680
C77         C  0.38256038  0.18410032  0.85409237     0.04990
C78         C  0.38178615  0.16088426  0.87531533    -0.09100
H79         H  0.37118989  0.10093633  0.82856836     0.10580
H80         H  0.37980867  0.19461036  0.80705152     0.08110
H81         H  0.38398500  0.16607194  0.89895450     0.07960
C82         C  0.37822541  0.36411913  0.86540712     0.04990
C83         C  0.34735460  0.37083738  0.86327237    -0.11160
C84         C  0.32594535  0.34764935  0.86444322     0.02490
C85         C  0.33556111  0.31790245  0.86810865    -0.09680
C86         C  0.36614959  0.31080026  0.87029255     0.04990
C87         C  0.38736476  0.33406655  0.86906767    -0.09100
H88         H  0.34006867  0.39387221  0.86022583     0.10580
H89         H  0.31902007  0.30001466  0.86821214     0.08110
H90         H  0.41109323  0.32875014  0.87042459     0.07960
C91         C  0.37822705  0.13304092  0.63465142     0.04990
C92         C  0.38438516  0.13232697  0.66566895    -0.11160
C93         C  0.36094307  0.12868280  0.68658142     0.02490
C94         C  0.33162063  0.12457092  0.67617614    -0.09680
C95         C  0.32485957  0.12723636  0.64573920     0.04990
C96         C  0.34820206  0.13080003  0.62488153    -0.09100
H97         H  0.40711122  0.13603687  0.67350745     0.10580
H98         H  0.31335113  0.12204804  0.69217053     0.08110
H99         H  0.34288347  0.13291360  0.60130664     0.07960
C100        C  0.14541848  0.36752750  0.63438747     0.04990
C101        C  0.14106801  0.37682542  0.66427208    -0.11160
C102        C  0.13853215  0.35572003  0.68745153     0.02490
C103        C  0.13957249  0.32503650  0.68024269    -0.09680
C104        C  0.14421676  0.31513103  0.65068304     0.04990
C105        C  0.14715885  0.33658264  0.62772398    -0.09100
H106        H  0.14004244  0.40061399  0.66948096     0.10580
H107        H  0.13778837  0.30858603  0.69799840     0.08110
H108        H  0.15099069  0.32929470  0.60483117     0.07960
C109        C  0.37653395  0.86403067  0.86610907     0.04990
C110        C  0.37360059  0.87014069  0.83528614    -0.11160
C111        C  0.37506573  0.84660796  0.81416963     0.02490
C112        C  0.37945063  0.81709950  0.82423845    -0.09680
C113        C  0.38206087  0.81058204  0.85483783     0.04990
C114        C  0.38085848  0.83423961  0.87561936    -0.09100
H115        H  0.36997535  0.89301930  0.82783665     0.10580
H116        H  0.38001500  0.79890093  0.80804308     0.08110
H117        H  0.38290303  0.82947288  0.89932622     0.07960
C118        C  0.14454279  0.86435868  0.63786679     0.04990
C119        C  0.13811094  0.83351568  0.64096377    -0.11160
C120        C  0.16135523  0.81217839  0.63955566     0.02490
C121        C  0.19093530  0.82181276  0.63475342    -0.09680
C122        C  0.19776851  0.85236510  0.63118699     0.04990
C123        C  0.17434140  0.87351795  0.63245604    -0.09100
H124        H  0.11531406  0.82623640  0.64558174     0.10580
H125        H  0.20888598  0.80532505  0.63471120     0.08110
H126        H  0.17927045  0.89717195  0.62947073     0.07960
C127        C  0.14704115  0.61574883  0.86685313     0.04990
C128        C  0.13802363  0.61288764  0.83685702    -0.11160
C129        C  0.15907620  0.61601133  0.81355306     0.02490
C130        C  0.18925510  0.62144368  0.82069129    -0.09680
C131        C  0.19859989  0.62415423  0.85050845     0.04990
C132        C  0.17735776  0.62125046  0.87367076    -0.09100
H133        H  0.11454983  0.60897310  0.83172977     0.10580
H134        H  0.20557948  0.62451289  0.80284271     0.08110
H135        H  0.18418259  0.62403157  0.89679874     0.07960
C136        C  0.37765650  0.63118027  0.86450740     0.04990
C137        C  0.38722980  0.66085451  0.86959398    -0.11160
C138        C  0.36627885  0.68432494  0.87227625     0.02490
C139        C  0.33549837  0.67757060  0.87097485    -0.09680
C140        C  0.32544451  0.64810759  0.86602642     0.04990
C141        C  0.34671933  0.62496131  0.86269985    -0.09100
H142        H  0.41103334  0.66565887  0.87133988     0.10580
H143        H  0.31917056  0.69554882  0.87286164     0.08110
H144        H  0.33928864  0.60226884  0.85787961     0.07960
C145        C  0.14932920  0.63274580  0.63531389     0.04990
C146        C  0.14982457  0.66401318  0.63078085    -0.11160
C147        C  0.14694810  0.68384221  0.65523576     0.02490
C148        C  0.14308317  0.67199287  0.68411615    -0.09680
C149        C  0.14272259  0.64084107  0.68900080     0.04990
C150        C  0.14559043  0.62134829  0.66438928    -0.09100
H151        H  0.15345238  0.67279877  0.60842922     0.10580
H152        H  0.14134861  0.68719500  0.70306997     0.08110
H153        H  0.14497322  0.59723685  0.66780672     0.07960
C154        C  0.37781082  0.86354051  0.63418002     0.04990
C155        C  0.38396026  0.86142277  0.66509905    -0.11160
C156        C  0.36039149  0.86265192  0.68618939     0.02490
C157        C  0.33086166  0.86653779  0.67617591    -0.09680
C158        C  0.32427631  0.86858968  0.64558732     0.04990
C159        C  0.34786727  0.86707803  0.62468678    -0.09100
H160        H  0.40687002  0.85838969  0.67267624     0.10580
H161        H  0.31267367  0.86696031  0.69243454     0.08110
H162        H  0.34289044  0.86824041  0.60096883     0.07960
C163        C  0.87856647  0.86565989  0.63582128     0.04990
C164        C  0.84815394  0.87402315  0.63347300    -0.11160
C165        C  0.82580932  0.85195135  0.63131905     0.02490
C166        C  0.83418638  0.82163333  0.62991276    -0.09680
C167        C  0.86419004  0.81280754  0.63359634     0.04990
C168        C  0.88649525  0.83499886  0.63626536    -0.09100
H169        H  0.84185677  0.89753742  0.63486539     0.10580
H170        H  0.81682826  0.80461155  0.62811645     0.08110
H171        H  0.90975458  0.82851863  0.63941021     0.07960
C172        C  0.64881669  0.86369931  0.86661730     0.04990
C173        C  0.64698293  0.83321958  0.87484846    -0.11160
C174        C  0.64275844  0.81095156  0.85295112     0.02490
C175        C  0.63870224  0.81962943  0.82307752    -0.09680
C176        C  0.64283829  0.84954457  0.81406155     0.04990
C177        C  0.64756683  0.87167971  0.83611662    -0.09100
H178        H  0.64994472  0.82687313  0.89808152     0.10580
H179        H  0.63426065  0.80248570  0.80634627     0.08110
H180        H  0.65066308  0.89494346  0.82966199     0.07960
C181        C  0.87732093  0.61583314  0.86666369     0.04990
C182        C  0.88492491  0.61690775  0.83593124    -0.11160
C183        C  0.86232796  0.61737905  0.81400855     0.02490
C184        C  0.83221573  0.61540575  0.82313231    -0.09680
C185        C  0.82415360  0.61674355  0.85346925     0.04990
C186        C  0.84676648  0.61617506  0.87526888    -0.09100
H187        H  0.90829382  0.61890140  0.82925298     0.10580
H188        H  0.81462431  0.61535609  0.80637593     0.08110
H189        H  0.84063693  0.61704118  0.89878775     0.07960
C190        C  0.87970596  0.63322041  0.63546640     0.04990
C191        C  0.88122743  0.66414391  0.62876941    -0.11160
C192        C  0.88406120  0.68544698  0.65187344     0.02490
C193        C  0.88674695  0.67549242  0.68149692    -0.09680
C194        C  0.88364052  0.64502347  0.68874708     0.04990
C195        C  0.88064548  0.62382855  0.66559235    -0.09100
H196        H  0.87867069  0.67161970  0.60582627     0.10580
H197        H  0.88898942  0.69189891  0.69939218     0.08110
H198        H  0.87808640  0.60022749  0.67102655     0.07960
C199        C  0.64544498  0.63184498  0.87069733     0.04990
C200        C  0.67587210  0.62302533  0.87150594    -0.11160
C201        C  0.69863818  0.64460282  0.87521571     0.02490
C202        C  0.69049500  0.67485023  0.87907192    -0.09680
C203        C  0.66061650  0.68420467  0.87601185     0.04990
C204        C  0.63799582  0.66257232  0.87262848    -0.09100
H205        H  0.68178022  0.59958569  0.86837765     0.10580
H206        H  0.70784433  0.69170875  0.88199744     0.08110
H207        H  0.61486042  0.66968039  0.86988044     0.07960
C208        C  0.64657688  0.86870351  0.63480345     0.04990
C209        C  0.67743555  0.87044497  0.62765419    -0.11160
C210        C  0.69886307  0.87421222  0.65042703     0.02490
C211        C  0.68888812  0.87801616  0.68003447    -0.09680
C212        C  0.65865995  0.87396269  0.68773069     0.04990
C213        C  0.63736863  0.86980140  0.66503831    -0.09100
H214        H  0.68471344  0.86727962  0.60464995     0.10580
H215        H  0.70517061  0.88114138  0.69779871     0.08110
H216        H  0.61393813  0.86644929  0.67091708     0.07960
C217        C  0.14668015  0.61326640  0.13252292     0.04990
C218        C  0.13808372  0.61393305  0.16302686    -0.11160
C219        C  0.15978520  0.61686916  0.18567146     0.02490
C220        C  0.19009171  0.61944325  0.17751116    -0.09680
C221        C  0.19912550  0.61934531  0.14740611     0.04990
C222        C  0.17743406  0.61553382  0.12498594    -0.09100
H223        H  0.11463638  0.61282299  0.16908529     0.10580
H224        H  0.20688059  0.62288985  0.19476937     0.08110
H225        H  0.18444702  0.61542209  0.10160658     0.07960
C226        C  0.14727747  0.86531922  0.36460307     0.04990
C227        C  0.14112624  0.83432278  0.36204987    -0.11160
C228        C  0.16452396  0.81310921  0.36377236     0.02490
C229        C  0.19399497  0.82317731  0.36850576    -0.09680
C230        C  0.20068240  0.85389004  0.37090718     0.04990
C231        C  0.17713844  0.87481393  0.36902097    -0.09100
H232        H  0.11828738  0.82676291  0.35839483     0.10580
H233        H  0.21206123  0.80686870  0.36940237     0.08110
H234        H  0.18208156  0.89859816  0.37064258     0.07960
C235        C  0.37791363  0.86567504  0.13545893     0.04990
C236        C  0.37893935  0.83510406  0.12694813    -0.11160
C237        C  0.38198698  0.81261722  0.14875871     0.02490
C238        C  0.38517608  0.82094720  0.17884715    -0.09680
C239        C  0.38220769  0.85088405  0.18791920     0.04990
C240        C  0.37923458  0.87338890  0.16615031    -0.09100
H241        H  0.37649232  0.82882798  0.10360091     0.10580
H242        H  0.38742693  0.80363495  0.19577906     0.08110
H243        H  0.37651569  0.89661361  0.17309939     0.07960
C244        C  0.37848378  0.63321644  0.13478871     0.04990
C245        C  0.34799007  0.62453741  0.13305941    -0.11160
C246        C  0.32536045  0.64619003  0.12852236     0.02490
C247        C  0.33378041  0.67622531  0.12418067    -0.09680
C248        C  0.36349005  0.68557204  0.12831091     0.04990
C249        C  0.38588148  0.66399577  0.13314569    -0.09100
H250        H  0.34187257  0.60115891  0.13588004     0.10580
H251        H  0.31665902  0.69303916  0.11997336     0.08110
H252        H  0.40882360  0.67124601  0.13686641     0.07960
C253        C  0.38066815  0.86224742  0.36769817     0.04990
C254        C  0.35095932  0.86714031  0.37753687    -0.11160
C255        C  0.32754455  0.87074054  0.35681094     0.02490
C256        C  0.33444408  0.87018897  0.32610127    -0.09680
C257        C  0.36381969  0.86508227  0.31574012     0.04990
C258        C  0.38695392  0.86124224  0.33673618    -0.09100
H259        H  0.34616340  0.86822147  0.40134422     0.10580
H260        H  0.31654031  0.87262195  0.30993294     0.08110
H261        H  0.40964260  0.85656596  0.32907888     0.07960
C262        C  0.14687412  0.63294904  0.36483453     0.04990
C263        C  0.14394344  0.62297855  0.33504239    -0.11160
C264        C  0.14325337  0.64351532  0.31122984     0.02490
C265        C  0.14485225  0.67435457  0.31758712    -0.09680
C266        C  0.14779659  0.68484116  0.34713285     0.04990
C267        C  0.14870719  0.66401464  0.37078559    -0.09100
H268        H  0.14286228  0.59907876  0.33035228     0.10580
H269        H  0.14494414  0.69036377  0.29931682     0.08110
H270        H  0.15135539  0.67189954  0.39362659     0.07960
C271        C  0.64870755  0.86749327  0.13351735     0.04990
C272        C  0.64808777  0.83702800  0.12524889    -0.11160
C273        C  0.64676376  0.81449486  0.14720623     0.02490
C274        C  0.64647857  0.82299085  0.17756041    -0.09680
C275        C  0.64539066  0.85335352  0.18621440     0.04990
C276        C  0.64645442  0.87555160  0.16391192    -0.09100
H277        H  0.64825138  0.83104885  0.10169447     0.10580
H278        H  0.64767754  0.80579127  0.19465143     0.08110
H279        H  0.64583703  0.89912224  0.17008909     0.07960
C280        C  0.87872255  0.86195790  0.36565904     0.04990
C281        C  0.88793456  0.83166564  0.36542929    -0.11160
C282        C  0.86641308  0.80869784  0.36710051     0.02490
C283        C  0.83604774  0.81618247  0.37011820    -0.09680
C284        C  0.82638952  0.84604885  0.36834779     0.04990
C285        C  0.84789562  0.86910394  0.36677007    -0.09100
H286        H  0.91152282  0.82606373  0.36283007     0.10580
H287        H  0.81951465  0.79829757  0.37139003     0.08110
H288        H  0.84075083  0.89233738  0.36517468     0.07960
C289        C  0.87816750  0.61424441  0.13425107     0.04990
C290        C  0.84768028  0.61924187  0.12743204    -0.11160
C291        C  0.82632074  0.62204390  0.15056455     0.02490
C292        C  0.83562906  0.61936528  0.18039321    -0.09680
C293        C  0.86583176  0.61437543  0.18761890     0.04990
C294        C  0.88694602  0.61138551  0.16436637    -0.09100
H295        H  0.84086383  0.62231036  0.10435818     0.10580
H296        H  0.81924687  0.62231243  0.19821860     0.08110
H297        H  0.91034454  0.60730116  0.16967546     0.07960
C298        C  0.64697912  0.63383443  0.13586035     0.04990
C299        C  0.63872893  0.66419727  0.13246794    -0.11160
C300        C  0.66069231  0.68676807  0.13040877     0.02490
C301        C  0.69108853  0.67855139  0.13118830    -0.09680
C302        C  0.69987888  0.64853760  0.13491500     0.04990
C303        C  0.67767412  0.62615945  0.13709346    -0.09100
H304        H  0.61515338  0.67027515  0.13191462     0.10580
H305        H  0.70818500  0.69583693  0.12999612     0.08110
H306        H  0.68422651  0.60290986  0.14012845     0.07960
C307        C  0.87842656  0.62960163  0.36589170     0.04990
C308        C  0.87774050  0.66073572  0.37132272    -0.11160
C309        C  0.88148741  0.68111648  0.34751600     0.02490
C310        C  0.88555480  0.66979051  0.31831272    -0.09680
C311        C  0.88476700  0.63881307  0.31245506     0.04990
C312        C  0.88184400  0.61886084  0.33648519    -0.09100
H313        H  0.87419569  0.66894004  0.39395095     0.10580
H314        H  0.88820862  0.68525848  0.29980340     0.08110
H315        H  0.88186410  0.59483187  0.33231417     0.07960
C316        C  0.64655489  0.86189100  0.36648132     0.04990
C317        C  0.63732241  0.86562280  0.33662931    -0.11160
C318        C  0.65875303  0.86815992  0.31352628     0.02490
C319        C  0.68934255  0.86710512  0.32085176    -0.09680
C320        C  0.69885887  0.86300245  0.35045317     0.04990
C321        C  0.67731144  0.86074977  0.37337063    -0.09100
H322        H  0.61354734  0.86658843  0.33151751     0.10580
H323        H  0.70606633  0.86826686  0.30315309     0.08110
H324        H  0.68433955  0.85724446  0.39632124     0.07960
C325        C  0.87803664  0.36764393  0.13513539     0.04990
C326        C  0.84762500  0.36784098  0.12640170    -0.11160
C327        C  0.82489211  0.37169248  0.14793760     0.02490
C328        C  0.83271234  0.37673683  0.17784504    -0.09680
C329        C  0.86252469  0.37397241  0.18743247     0.04990
C330        C  0.88528864  0.37008165  0.16580901    -0.09100
H331        H  0.84165513  0.36428698  0.10314048     0.10580
H332        H  0.81495992  0.38028759  0.19422543     0.08110
H333        H  0.90845009  0.36761827  0.17281377     0.07960
C334        C  0.88023023  0.13414157  0.36589378     0.04990
C335        C  0.84995964  0.12566054  0.36940847    -0.11160
C336        C  0.82720224  0.14753057  0.37133883     0.02490
C337        C  0.83524822  0.17797831  0.37025039    -0.09680
C338        C  0.86527788  0.18685869  0.36672990     0.04990
C339        C  0.88780506  0.16483575  0.36486925    -0.09100
H340        H  0.84419697  0.10202634  0.37048791     0.10580
H341        H  0.81786468  0.19504992  0.37078950     0.08110
H342        H  0.91098334  0.17149371  0.36133302     0.07960
C343        C  0.64814667  0.13152362  0.13406548     0.04990
C344        C  0.64567377  0.16169858  0.12522857    -0.11160
C345        C  0.64471401  0.18485830  0.14667023     0.02490
C346        C  0.64606342  0.17733515  0.17718045    -0.09680
C347        C  0.64686775  0.14724338  0.18655777     0.04990
C348        C  0.64798518  0.12436997  0.16474960    -0.09100
H349        H  0.64442219  0.16702383  0.10159018     0.10580
H350        H  0.64725835  0.19509526  0.19380865     0.08110
H351        H  0.64908230  0.10103894  0.17155860     0.07960
C352        C  0.64581191  0.36513683  0.13179307     0.04990
C353        C  0.67660074  0.37225517  0.13198308    -0.11160
C354        C  0.69824672  0.34936639  0.12992880     0.02490
C355        C  0.68875073  0.31948381  0.12682228    -0.09680
C356        C  0.65816723  0.31188178  0.12689412     0.04990
C357        C  0.63670103  0.33497282  0.12926718    -0.09100
H358        H  0.68359484  0.39540432  0.13495916     0.10580
H359        H  0.70549246  0.30181733  0.12570197     0.08110
H360        H  0.61294787  0.32959665  0.12914014     0.07960
C361        C  0.64647202  0.13350477  0.36716415     0.04990
C362        C  0.63920409  0.13295709  0.33649491    -0.11160
C363        C  0.66197232  0.13307231  0.31452378     0.02490
C364        C  0.69208430  0.13380330  0.32371615    -0.09680
C365        C  0.69984779  0.13275230  0.35413533     0.04990
C366        C  0.67685036  0.13280537  0.37579639    -0.09100
H367        H  0.61582268  0.13220812  0.32984341     0.10580
H368        H  0.70972470  0.13577349  0.30700866     0.08110
H369        H  0.68253447  0.13258869  0.39937277     0.07960
C370        C  0.88113096  0.36629369  0.36689483     0.04990
C371        C  0.88155588  0.37604838  0.33689147    -0.11160
C372        C  0.88476487  0.35510028  0.31355562     0.02490
C373        C  0.88830583  0.32462424  0.32038034    -0.09680
C374        C  0.88562199  0.31427302  0.34986337     0.04990
C375        C  0.88292508  0.33532348  0.37327522    -0.09100
H376        H  0.87840885  0.39964179  0.33173770     0.10580
H377        H  0.89044726  0.30849827  0.30219235     0.08110
H378        H  0.88063535  0.32766049  0.39620406     0.07960
C379        C  0.14594372  0.36542832  0.13474336     0.04990
C380        C  0.17640692  0.36595498  0.12633916    -0.11160
C381        C  0.19896746  0.36682842  0.14826185     0.02490
C382        C  0.19060738  0.36666816  0.17861042    -0.09680
C383        C  0.16032133  0.36747477  0.18737436     0.04990
C384        C  0.13803154  0.36693629  0.16522074    -0.09100
H385        H  0.18240395  0.36598501  0.10277620     0.10580
H386        H  0.20786804  0.36521859  0.19560598     0.08110
H387        H  0.11449953  0.36728788  0.17161215     0.07960
C388        C  0.37760955  0.13167010  0.13430368     0.04990
C389        C  0.37939862  0.12348976  0.16463972    -0.11160
C390        C  0.38006217  0.14560302  0.18716759     0.02490
C391        C  0.37908592  0.17597930  0.17887397    -0.09680
C392        C  0.37910752  0.18463359  0.14865266     0.04990
C393        C  0.37809401  0.16221514  0.12638850    -0.09100
H394        H  0.37992300  0.09990105  0.17061401     0.10580
H395        H  0.37766532  0.19308455  0.19616961     0.08110
H396        H  0.37805613  0.16835943  0.10291522     0.07960
C397        C  0.14441201  0.13211839  0.36288637     0.04990
C398        C  0.13652701  0.16271695  0.36451971    -0.11160
C399        C  0.15885732  0.18499567  0.36569125     0.02490
C400        C  0.18911702  0.17626223  0.36504379    -0.09680
C401        C  0.19747374  0.14587161  0.36520825     0.04990
C402        C  0.17490034  0.12380892  0.36388818    -0.09100
H403        H  0.11302442  0.16910078  0.36461792     0.10580
H404        H  0.20640750  0.19336884  0.36388160     0.08110
H405        H  0.18089998  0.10020358  0.36402039     0.07960
C406        C  0.37828530  0.13225235  0.36748101     0.04990
C407        C  0.38693905  0.13082961  0.33711237    -0.11160
C408        C  0.36515698  0.12996043  0.31440005     0.02490
C409        C  0.33467988  0.13064319  0.32243429    -0.09680
C410        C  0.32553953  0.13044442  0.35251238     0.04990
C411        C  0.34752844  0.13143114  0.37499742    -0.09100
H412        H  0.41059632  0.13025375  0.33124385     0.10580
H413        H  0.31783465  0.13203047  0.30502069     0.08110
H414        H  0.34075535  0.13193487  0.39833664     0.07960
C415        C  0.14637345  0.36588169  0.36740886     0.04990
C416        C  0.14511899  0.37423768  0.33712910    -0.11160
C417        C  0.14480846  0.35217529  0.31456363     0.02490
C418        C  0.14560317  0.32179167  0.32277584    -0.09680
C419        C  0.14505719  0.31305043  0.35294093     0.04990
C420        C  0.14581377  0.33535382  0.37530099    -0.09100
H421        H  0.14463643  0.39786000  0.33126348     0.10580
H422        H  0.14720179  0.30471678  0.30545630     0.08110
H423        H  0.14567055  0.32913831  0.39875921     0.07960
C424        C  0.37956660  0.36557468  0.13408941     0.04990
C425        C  0.34905128  0.37372232  0.13271718    -0.11160
C426        C  0.32655533  0.35159991  0.13229083     0.02490
C427        C  0.33496791  0.32126217  0.13324773    -0.09680
C428        C  0.36526284  0.31259019  0.13300487     0.04990
C429        C  0.38756651  0.33496387  0.13366147    -0.09100
H430        H  0.34288257  0.39728139  0.13241167     0.10580
H431        H  0.31769500  0.30417231  0.13488421     0.08110
H432        H  0.41110201  0.32868756  0.13358586     0.07960
O433        O  0.48115392  0.46691129  0.16723482    -0.71080
O434        O  0.54524619  0.53144806  0.16830181    -0.72060
O435        O  0.48060846  0.53124256  0.16898723    -0.60680
O436        O  0.54521224  0.46716393  0.16665274    -0.69090
O437        O  0.54459185  0.46874821  0.11699217    -0.68640
O438        O  0.48141687  0.53254413  0.11926106    -0.59900
O439        O  0.54449295  0.53218353  0.11860077    -0.72400
O440        O  0.48086139  0.46903204  0.11757218    -0.71180
Cu441      Cu  0.51306042  0.49914703  0.16964149     1.04560
Cu442      Cu  0.51282066  0.50060521  0.11649865     1.04330
C443        C  0.47083766  0.45794020  0.14201645     0.95120
C444        C  0.55484637  0.54205189  0.14338201     0.94260
C445        C  0.47110578  0.54216725  0.14425707     0.86400
C446        C  0.55512796  0.45794046  0.14127530     0.92680
O447        O  0.13092481  0.53408559  0.53127839    -0.71080
O448        O  0.12881351  0.46878103  0.46967834    -0.72060
O449        O  0.12977114  0.47048004  0.53295782    -0.60680
O450        O  0.12971333  0.53209404  0.46822184    -0.69090
O451        O  0.17954155  0.53274302  0.46774951    -0.68640
O452        O  0.17951091  0.46793453  0.53163421    -0.59900
O453        O  0.17854572  0.46827591  0.46765455    -0.72400
O454        O  0.18075728  0.53234524  0.53179671    -0.71180
Cu455      Cu  0.12819969  0.50136649  0.50060191     1.04560
Cu456      Cu  0.18143828  0.50028731  0.49967891     1.04330
C457        C  0.15602565  0.54363605  0.54129630     0.95120
C458        C  0.15318292  0.45829464  0.45859052     0.94260
C459        C  0.15431629  0.45918431  0.54250227     0.86400
C460        C  0.15436931  0.54239240  0.45775985     0.92680
O461        O  0.48114336  0.11732359  0.53399318    -0.71080
O462        O  0.54264061  0.11561799  0.46837261    -0.72060
O463        O  0.54434103  0.11658026  0.53128625    -0.60680
O464        O  0.47880827  0.11627815  0.47059913    -0.69090
O465        O  0.47971300  0.16611997  0.46854805    -0.68640
O466        O  0.54458108  0.16639957  0.53177568    -0.59900
O467        O  0.54367244  0.16549696  0.46765720    -0.72400
O468        O  0.48015370  0.16718916  0.53269808    -0.71180
Cu469      Cu  0.51166004  0.11482564  0.50104224     1.04560
Cu470      Cu  0.51202071  0.16814657  0.50015528     1.04330
C471        C  0.47095887  0.14233998  0.54383547     0.95120
C472        C  0.55325509  0.14013989  0.45793006     0.94260
C473        C  0.55494482  0.14130162  0.54122933     0.86400
C474        C  0.46898332  0.14092702  0.45976275     0.92680
O475        O  0.84524484  0.53120134  0.53407725    -0.71080
O476        O  0.84602885  0.46669371  0.46972085    -0.72060
O477        O  0.84575062  0.46673797  0.53382144    -0.60680
O478        O  0.84549449  0.53113557  0.46996235    -0.69090
O479        O  0.89529798  0.52986425  0.46959640    -0.68640
O480        O  0.89554241  0.46870456  0.53437073    -0.59900
O481        O  0.89579922  0.46651133  0.47126986    -0.72400
O482        O  0.89506639  0.53213544  0.53249404    -0.71180
Cu483      Cu  0.84375782  0.49892540  0.50190685     1.04560
Cu484      Cu  0.89701564  0.49930495  0.50194285     1.04330
C485        C  0.87027150  0.54214543  0.54303608     0.95120
C486        C  0.87128258  0.45620288  0.46059158     0.94260
C487        C  0.87094100  0.45777190  0.54430191     0.86400
C488        C  0.87066425  0.54043524  0.45954228     0.92680
O489        O  0.48176402  0.83073648  0.53432553    -0.71080
O490        O  0.54607122  0.83017137  0.46973523    -0.72060
O491        O  0.54596776  0.83152708  0.53391409    -0.60680
O492        O  0.48162439  0.82918654  0.47004648    -0.69090
O493        O  0.48227255  0.87904476  0.46852286    -0.68640
O494        O  0.54459849  0.88134193  0.53270899    -0.59900
O495        O  0.54537715  0.87993730  0.46972668    -0.72400
O496        O  0.48087054  0.88051808  0.53201126    -0.71180
Cu497      Cu  0.51384921  0.82855128  0.50205527     1.04560
Cu498      Cu  0.51320001  0.88181076  0.50076966     1.04330
C499        C  0.47108590  0.85598624  0.54319825     0.95120
C500        C  0.55604366  0.85522723  0.45969914     0.94260
C501        C  0.55557142  0.85701523  0.54317797     0.86400
C502        C  0.47224546  0.85393996  0.45888516     0.92680
O503        O  0.54194434  0.53082765  0.88347287    -0.71080
O504        O  0.48051662  0.46582492  0.88245900    -0.72060
O505        O  0.54371620  0.46703847  0.88355189    -0.60680
O506        O  0.47841613  0.52893841  0.88203431    -0.69090
O507        O  0.48066902  0.53030934  0.83232965    -0.68640
O508        O  0.54445989  0.46586210  0.83389232    -0.59900
O509        O  0.48005643  0.46609619  0.83275529    -0.72400
O510        O  0.54482863  0.53013102  0.83384569    -0.71180
Cu511      Cu  0.51116607  0.49820657  0.88449874     1.04560
Cu512      Cu  0.51257912  0.49808856  0.83136400     1.04330
C513        C  0.55322195  0.54086121  0.85911922     0.95120
C514        C  0.47029035  0.45575081  0.85772778     0.94260
C515        C  0.55413020  0.45620305  0.85906082     0.86400
C516        C  0.46916119  0.53935744  0.85707287     0.92680
O517        O  0.04285776  0.96452971  0.33205004    -0.71080
O518        O  0.97915616  0.02958533  0.33192861    -0.72060
O519        O  0.04352236  0.02897994  0.33114954    -0.60680
O520        O  0.97860888  0.96521817  0.33293563    -0.69090
O521        O  0.97964113  0.96647730  0.38248910    -0.68640
O522        O  0.04296375  0.02993682  0.38086494    -0.59900
O523        O  0.98005228  0.03019794  0.38164931    -0.72400
O524        O  0.04327370  0.96649751  0.38171755    -0.71180
Cu525      Cu  0.01100410  0.99701522  0.33016740     1.04560
Cu526      Cu  0.01146720  0.99822420  0.38327663     1.04330
C527        C  0.05331162  0.95552084  0.35715290     0.95120
C528        C  0.96993448  0.04039804  0.35695714     0.94260
C529        C  0.05311363  0.03978524  0.35596855     0.86400
C530        C  0.96890921  0.95567640  0.35823114     0.92680
O531        O  0.98104594  0.03140462  0.61921751    -0.71080
O532        O  0.04354229  0.96673173  0.62039638    -0.72060
O533        O  0.98043789  0.96824575  0.61972317    -0.60680
O534        O  0.04485779  0.03051282  0.61985090    -0.69090
O535        O  0.04436313  0.03227483  0.66945137    -0.68640
O536        O  0.97968899  0.96794805  0.66936736    -0.59900
O537        O  0.04408898  0.96795338  0.67014197    -0.72400
O538        O  0.97999821  0.03246017  0.66892114    -0.71180
Cu539      Cu  0.01255677  0.99927249  0.61819941     1.04560
Cu540      Cu  0.01202626  0.00020343  0.67131743     1.04330
C541        C  0.97021707  0.04184627  0.64368599     0.95120
C542        C  0.05351510  0.95690808  0.64531014     0.94260
C543        C  0.96976887  0.95808709  0.64426851     0.86400
C544        C  0.05497146  0.04138719  0.64434963     0.92680
O545        O  0.34545783  0.03012004  0.96817625    -0.71080
O546        O  0.34436040  0.96585214  0.03231284    -0.72060
O547        O  0.34497102  0.03033095  0.03234611    -0.60680
O548        O  0.34484968  0.96605608  0.96792906    -0.69090
O549        O  0.39464580  0.96559612  0.96920681    -0.68640
O550        O  0.39479777  0.02952064  0.03200193    -0.59900
O551        O  0.39421025  0.96645048  0.03267938    -0.72400
O552        O  0.39519722  0.02898109  0.96868044    -0.71180
Cu553      Cu  0.34305351  0.99809122  0.00018787     1.04560
Cu554      Cu  0.39630680  0.99760351  0.00060681     1.04330
C555        C  0.37073864  0.03963170  0.95822810     0.95120
C556        C  0.36934121  0.95639607  0.04290886     0.94260
C557        C  0.37012396  0.03992887  0.04241192     0.86400
C558        C  0.37000543  0.95574503  0.95838914     0.92680
O559        O  0.04437528  0.33342512  0.03357879    -0.71080
O560        O  0.98056621  0.33433658  0.96950594    -0.72060
O561        O  0.04488367  0.33381734  0.96958796    -0.60680
O562        O  0.98005297  0.33383905  0.03343848    -0.69090
O563        O  0.98070768  0.38370827  0.03335874    -0.68640
O564        O  0.04536061  0.38356614  0.97089253    -0.59900
O565        O  0.98206420  0.38421286  0.96980624    -0.72400
O566        O  0.04379375  0.38329018  0.03408197    -0.71180
Cu567      Cu  0.01244058  0.33200665  0.00149266     1.04560
Cu568      Cu  0.01295295  0.38530926  0.00202271     1.04330
C569        C  0.05393427  0.35844761  0.04407899     0.95120
C570        C  0.97152280  0.35964970  0.95940269     0.94260
C571        C  0.05554032  0.35885638  0.96028541     0.86400
C572        C  0.97038901  0.35898897  0.04363845     0.92680
O573        O  0.63121121  0.03082923  0.96779481    -0.71080
O574        O  0.63211297  0.96773002  0.03076299    -0.72060
O575        O  0.63163132  0.03058426  0.03118372    -0.60680
O576        O  0.63188102  0.96721143  0.96761922    -0.69090
O577        O  0.68169212  0.96745452  0.96627012    -0.68640
O578        O  0.68150366  0.03161237  0.03065460    -0.59900
O579        O  0.68196055  0.96736146  0.03049421    -0.72400
O580        O  0.68094153  0.03187041  0.96661275    -0.71180
Cu581      Cu  0.63011409  0.99909579  0.99926218     1.04560
Cu582      Cu  0.68338529  0.99959276  0.99843512     1.04330
C583        C  0.65560597  0.04159677  0.95717052     0.95120
C584        C  0.65691105  0.95777865  0.04100028     0.94260
C585        C  0.65638585  0.04083567  0.04133304     0.86400
C586        C  0.65658893  0.95695633  0.95705941     0.92680
O587        O  0.04239372  0.58766484  0.03213277    -0.71080
O588        O  0.98053789  0.58976869  0.96646975    -0.72060
O589        O  0.04436745  0.58901356  0.96832760    -0.60680
O590        O  0.97831087  0.58847552  0.03014629    -0.69090
O591        O  0.98077899  0.63825347  0.03292741    -0.68640
O592        O  0.04345514  0.63874940  0.96807074    -0.59900
O593        O  0.97941559  0.63955807  0.96923644    -0.72400
O594        O  0.04462926  0.63749532  0.03137051    -0.71180
Cu595      Cu  0.01136741  0.58697986  0.99923819     1.04560
Cu596      Cu  0.01205078  0.64023570  0.00043987     1.04330
C597        C  0.05372416  0.61230704  0.04166177     0.95120
C598        C  0.96994752  0.61497826  0.95772614     0.94260
C599        C  0.05430179  0.61399097  0.95820803     0.86400
C600        C  0.96941686  0.61334448  0.04156524     0.92680
C601        C  0.42397249  0.38884611  0.15982805     0.25460
C602        C  0.40299654  0.38915837  0.13628493    -0.22650
C603        C  0.40408944  0.41253608  0.11520541     0.20370
C604        C  0.42597468  0.43495938  0.11731678     0.25400
C605        C  0.44711893  0.43463504  0.14072258    -0.22590
C606        C  0.44573875  0.41149682  0.16214727     0.20300
F607        F  0.46589784  0.41034846  0.18489507    -0.12550
F608        F  0.42304744  0.36687133  0.18088919    -0.14910
F609        F  0.42614516  0.45732358  0.09665361    -0.14910
F610        F  0.38423898  0.41337581  0.09217755    -0.12550
C611        C  0.17548266  0.39479405  0.40553117     0.25460
C612        C  0.14821786  0.38920718  0.39082867    -0.22650
C613        C  0.12280204  0.40632141  0.39815096     0.20370
C614        C  0.12441933  0.42868342  0.42014334     0.25400
C615        C  0.15172737  0.43455041  0.43511570    -0.22590
C616        C  0.17732920  0.41736992  0.42740664     0.20300
F617        F  0.20408513  0.42209088  0.44118587    -0.12550
F618        F  0.20040957  0.37859005  0.39838625    -0.14910
F619        F  0.09922308  0.44481404  0.42639636    -0.14910
F620        F  0.09628862  0.40118340  0.38406065    -0.12550
C621        C  0.40054111  0.11575227  0.41637834     0.25460
C622        C  0.40130427  0.13494732  0.39137849    -0.22650
C623        C  0.42398929  0.15699184  0.38958144     0.20370
C624        C  0.44563673  0.15951749  0.41217862     0.25400
C625        C  0.44513301  0.13988467  0.43682394    -0.22590
C626        C  0.42226016  0.11815911  0.43880722     0.20300
F627        F  0.42073207  0.09938734  0.46272328    -0.12550
F628        F  0.37917507  0.09409119  0.41876925    -0.14910
F629        F  0.46764600  0.18049645  0.40945721    -0.14910
F630        F  0.42498527  0.17635982  0.36611588    -0.12550
C631        C  0.09718273  0.10788428  0.38146371     0.25460
C632        C  0.12071945  0.10882847  0.36041816    -0.22650
C633        C  0.12134549  0.08753879  0.33697717     0.20370
C634        C  0.09895297  0.06545307  0.33488327     0.25400
C635        C  0.07584071  0.06407272  0.35646652    -0.22590
C636        C  0.07504852  0.08571701  0.37957433     0.20300
F637        F  0.05256739  0.08564409  0.40027470    -0.12550
F638        F  0.09601851  0.12802988  0.40437929    -0.14910
F639        F  0.10040796  0.04492189  0.31232777    -0.14910
F640        F  0.14348064  0.08834724  0.31592943    -0.12550
C641        C  0.28097694  0.15105042  0.38080408     0.25460
C642        C  0.29285824  0.13068177  0.35968145    -0.22650
C643        C  0.27289434  0.11237819  0.34327167     0.20370
C644        C  0.24181694  0.11636842  0.34580651     0.25400
C645        C  0.22996759  0.13797931  0.36568302    -0.22590
C646        C  0.24989393  0.15419334  0.38418989     0.20300
F647        F  0.23927741  0.17396715  0.40495875    -0.12550
F648        F  0.29927949  0.16941002  0.39684030    -0.14910
F649        F  0.22354861  0.10041393  0.32736593    -0.14910
F650        F  0.28351247  0.09123229  0.32389913    -0.12550
C651        C  0.16763670  0.23743505  0.38477964     0.25460
C652        C  0.15133105  0.21757169  0.36626033    -0.22650
C653        C  0.12998472  0.22951869  0.34640669     0.20370
C654        C  0.12636864  0.26060952  0.34387570     0.25400
C655        C  0.14479005  0.28047701  0.36026945    -0.22590
C656        C  0.16481134  0.26854613  0.38144852     0.20300
F657        F  0.18312674  0.28681146  0.39757644    -0.12550
F658        F  0.18719296  0.22670926  0.40547245    -0.14910
F659        F  0.10550613  0.27132808  0.32448317    -0.14910
F660        F  0.11397564  0.21130983  0.32793719    -0.12550
C661        C  0.39787169  0.08627054  0.10809803     0.25460
C662        C  0.37533241  0.10817517  0.11087876    -0.22650
C663        C  0.35046390  0.10722322  0.09151207     0.20370
C664        C  0.34827475  0.08469843  0.06956899     0.25400
C665        C  0.37120097  0.06305126  0.06638059    -0.22590
C666        C  0.39593442  0.06403160  0.08602315     0.20300
F667        F  0.41816404  0.04314941  0.08419446    -0.12550
F668        F  0.42212333  0.08675344  0.12648272    -0.14910
F669        F  0.32413446  0.08453879  0.05103531    -0.14910
F670        F  0.32809318  0.12787402  0.09416145    -0.12550
C671        C  0.35925684  0.22869048  0.11941311     0.25460
C672        C  0.37908491  0.21720092  0.14104211    -0.22650
C673        C  0.39731277  0.23747731  0.15719451     0.20370
C674        C  0.39380809  0.26852410  0.15381131     0.25400
C675        C  0.37276464  0.28000294  0.13338082    -0.22590
C676        C  0.35658093  0.25970420  0.11524425     0.20300
F677        F  0.33728611  0.26993951  0.09406328    -0.12550
F678        F  0.34100184  0.21013028  0.10355326    -0.14910
F679        F  0.40968381  0.28721086  0.17192143    -0.14910
F680        F  0.41801786  0.22725245  0.17700892    -0.12550
C681        C  0.36038007  0.11577241  0.23085653     0.25460
C682        C  0.38023656  0.13760543  0.21951975    -0.22650
C683        C  0.39837180  0.15379484  0.23978430     0.20370
C684        C  0.39465792  0.15033703  0.27072615     0.25400
C685        C  0.37338988  0.12988551  0.28205951    -0.22590
C686        C  0.35742317  0.11159180  0.26175635     0.20300
F687        F  0.33792082  0.09039543  0.27188104    -0.12550
F688        F  0.34224255  0.09985871  0.21224943    -0.14910
F689        F  0.41042573  0.16850477  0.28944177    -0.14910
F690        F  0.41903151  0.17384589  0.22963100    -0.12550
C691        C  0.09961534  0.38513202  0.11029436     0.25460
C692        C  0.12225265  0.36320849  0.11172113    -0.22650
C693        C  0.12182902  0.33895101  0.09140412     0.20370
C694        C  0.09917639  0.33682496  0.06978857     0.25400
C695        C  0.07686186  0.35918211  0.06794509    -0.22590
C696        C  0.07721023  0.38322446  0.08857267     0.20300
F697        F  0.05560915  0.40481267  0.08795885    -0.12550
F698        F  0.09956803  0.40880222  0.12960020    -0.14910
F699        F  0.09959471  0.31341438  0.05017212    -0.14910
F700        F  0.14315509  0.31713218  0.09276398    -0.12550
C701        C  0.16871018  0.38541810  0.24008705     0.25460
C702        C  0.15257125  0.36728294  0.21979110    -0.22650
C703        C  0.13099163  0.34712213  0.23107599     0.20370
C704        C  0.12689591  0.34398931  0.26195976     0.25400
C705        C  0.14501226  0.36011600  0.28225545    -0.22590
C706        C  0.16533598  0.38154465  0.27099577     0.20300
F707        F  0.18340415  0.39738372  0.28973110    -0.12550
F708        F  0.18857680  0.40627696  0.22997740    -0.14910
F709        F  0.10587882  0.32427568  0.27205395    -0.14910
F710        F  0.11520643  0.32893400  0.21239014    -0.12550
C711        C  0.28273814  0.38113501  0.15260725     0.25460
C712        C  0.29408525  0.35947816  0.13249016    -0.22650
C713        C  0.27373514  0.34313380  0.11459600     0.20370
C714        C  0.24273863  0.34628215  0.11875913     0.25400
C715        C  0.23140880  0.36664824  0.14018983    -0.22590
C716        C  0.25174683  0.38504159  0.15600117     0.20300
F717        F  0.24160232  0.40618131  0.17563169    -0.12550
F718        F  0.30146490  0.39716928  0.17051404    -0.14910
F719        F  0.22400924  0.32794535  0.10319304    -0.14910
F720        F  0.28388696  0.32320955  0.09374175    -0.12550
C721        C  0.85176630  0.40642719  0.39383731     0.25460
C722        C  0.87764072  0.38836127  0.39155390    -0.22650
C723        C  0.90059461  0.39174833  0.41272306     0.20370
C724        C  0.89824712  0.41345306  0.43533607     0.25400
C725        C  0.87263621  0.43209396  0.43747610    -0.22590
C726        C  0.84914505  0.42796783  0.41674536     0.20300
F727        F  0.82404045  0.44532141  0.41803844    -0.12550
F728        F  0.82898500  0.40308311  0.37393294    -0.14910
F729        F  0.92111782  0.41607927  0.45523919    -0.14910
F730        F  0.92576347  0.37451955  0.41097274    -0.12550
C731        C  0.62190147  0.11474823  0.41425954     0.25460
C732        C  0.62237664  0.13516898  0.39025551    -0.22650
C733        C  0.60004297  0.15759714  0.38881685     0.20370
C734        C  0.57770475  0.15953894  0.41099051     0.25400
C735        C  0.57709344  0.13885607  0.43476558    -0.22590
C736        C  0.59943361  0.11650223  0.43620793     0.20300
F737        F  0.59992677  0.09669555  0.45931759    -0.12550
F738        F  0.64295573  0.09272576  0.41623075    -0.14910
F739        F  0.55629555  0.18120329  0.40884149    -0.14910
F740        F  0.60020515  0.17802944  0.36625056    -0.12550
C741        C  0.60364715  0.39014538  0.15972670     0.25460
C742        C  0.62310897  0.38923141  0.13482993    -0.22650
C743        C  0.62071646  0.41136356  0.11264927     0.20370
C744        C  0.59874456  0.43374621  0.11489187     0.25400
C745        C  0.57896535  0.43467330  0.13965813    -0.22590
C746        C  0.58190233  0.41283781  0.16228304     0.20300
F747        F  0.56323114  0.41291664  0.18644956    -0.12550
F748        F  0.60590757  0.36917732  0.18167706    -0.14910
F749        F  0.59709944  0.45475416  0.09292969    -0.14910
F750        F  0.63930621  0.41088568  0.08842410    -0.12550
C751        C  0.63335294  0.06122224  0.08830614     0.25460
C752        C  0.65554526  0.06326893  0.06581109    -0.22650
C753        C  0.67609770  0.08724848  0.06659680     0.20370
C754        C  0.67380270  0.10935172  0.08892359     0.25400
C755        C  0.65119200  0.10758874  0.11106208    -0.22590
C756        C  0.63129590  0.08308653  0.11079461     0.20300
F757        F  0.60925851  0.08077945  0.13181756    -0.12550
F758        F  0.61376545  0.03781154  0.08869364    -0.14910
F759        F  0.69378462  0.13243100  0.08903270    -0.14910
F760        F  0.69773142  0.08986202  0.04518886    -0.12550
C761        C  0.62915232  0.15610128  0.23947491     0.25460
C762        C  0.64785078  0.14036234  0.21919755    -0.22650
C763        C  0.66886966  0.11975951  0.23064065     0.20370
C764        C  0.67199643  0.11600888  0.26158693     0.25400
C765        C  0.65495631  0.13352444  0.28188988    -0.22590
C766        C  0.63296644  0.15309410  0.27043696     0.20300
F767        F  0.61624027  0.17065329  0.28905939    -0.12550
F768        F  0.60752016  0.17502361  0.22930210    -0.14910
F769        F  0.69229609  0.09563144  0.27170562    -0.14910
F770        F  0.68766196  0.10442107  0.21202297    -0.12550
C771        C  0.62921102  0.26872040  0.14904960     0.25460
C772        C  0.64962671  0.27954326  0.12744178    -0.22650
C773        C  0.66510586  0.25865744  0.10923120     0.20370
C774        C  0.66281682  0.22782325  0.11469484     0.25400
C775        C  0.64390820  0.21705858  0.13766431    -0.22590
C776        C  0.62598788  0.23780660  0.15369448     0.20300
F777        F  0.60605848  0.22821797  0.17474154    -0.12550
F778        F  0.61394875  0.28795364  0.16727259    -0.14910
F779        F  0.68079515  0.20881528  0.09886138    -0.14910
F780        F  0.68368497  0.26818573  0.08696337    -0.12550
C781        C  0.94999617  0.08761646  0.38003183     0.25460
C782        C  0.94772931  0.06514831  0.35784409    -0.22650
C783        C  0.92372650  0.06621350  0.33745892     0.20370
C784        C  0.90179284  0.08874153  0.33996699     0.25400
C785        C  0.90382980  0.11083641  0.36255421    -0.22590
C786        C  0.92836890  0.11033445  0.38222812     0.20300
F787        F  0.93093555  0.13139529  0.40417340    -0.12550
F788        F  0.97339415  0.08775410  0.39949588    -0.14910
F789        F  0.87863457  0.08910780  0.32022683    -0.14910
F790        F  0.92092127  0.04489044  0.31579830    -0.12550
C791        C  0.89329314  0.23443913  0.37992764     0.25460
C792        C  0.87207858  0.21914673  0.36218334    -0.22650
C793        C  0.85581429  0.23525817  0.34061646     0.20370
C794        C  0.85988350  0.26606241  0.33738645     0.25400
C795        C  0.88113056  0.28158025  0.35490480    -0.22590
C796        C  0.89778567  0.26551208  0.37631894     0.20300
F797        F  0.91855314  0.27978154  0.39342972    -0.12550
F798        F  0.90907257  0.21946419  0.40116867    -0.14910
F799        F  0.84237769  0.28085502  0.31740734    -0.14910
F800        F  0.83584910  0.22108128  0.32245008    -0.12550
C801        C  0.78370063  0.11807765  0.35072826     0.25460
C802        C  0.79476558  0.13930665  0.37137862    -0.22650
C803        C  0.77407505  0.15541835  0.38930595     0.20370
C804        C  0.74312532  0.15254656  0.38463943     0.25400
C805        C  0.73215647  0.13269533  0.36263783    -0.22590
C806        C  0.75276398  0.11447070  0.34680195     0.20300
F807        F  0.74295806  0.09383827  0.32657514    -0.12550
F808        F  0.80269045  0.10229614  0.33268769    -0.14910
F809        F  0.72412405  0.17071316  0.40026378    -0.14910
F810        F  0.78386135  0.17495158  0.41059427    -0.12550
C811        C  0.90192883  0.34049031  0.09143527     0.25460
C812        C  0.90224810  0.36426878  0.11237255    -0.22650
C813        C  0.92570126  0.38537536  0.11119141     0.20370
C814        C  0.94793549  0.38332055  0.08906366     0.25400
C815        C  0.94739178  0.35993325  0.06773433    -0.22590
C816        C  0.92443850  0.33822120  0.06941315     0.20300
F817        F  0.92323241  0.31536302  0.04919921    -0.12550
F818        F  0.87997313  0.31931181  0.09247154    -0.14910
F819        F  0.97025732  0.40413948  0.08871418    -0.14910
F820        F  0.92662403  0.40858874  0.13101541    -0.12550
C821        C  0.89261497  0.38574012  0.23433158     0.25460
C822        C  0.86852762  0.37088731  0.22009421    -0.22650
C823        C  0.84960141  0.35234177  0.23743716     0.20370
C824        C  0.85407224  0.34923233  0.26800964     0.25400
C825        C  0.87853653  0.36311430  0.28207444    -0.22590
C826        C  0.89767344  0.38172768  0.26519919     0.20300
F827        F  0.92160067  0.39521753  0.27837246    -0.12550
F828        F  0.91113791  0.40405161  0.21846822    -0.14910
F829        F  0.83466059  0.33189721  0.28394440    -0.14910
F830        F  0.82726777  0.33601749  0.22468796    -0.12550
C831        C  0.77650375  0.38327126  0.12092252     0.25460
C832        C  0.79296732  0.36559308  0.14110371    -0.22650
C833        C  0.77827158  0.34260841  0.15694848     0.20370
C834        C  0.74753491  0.33815160  0.15385806     0.25400
C835        C  0.73077148  0.35569662  0.13374224    -0.22590
C836        C  0.74553281  0.37830734  0.11718705     0.20300
F837        F  0.73009206  0.39528945  0.09723737    -0.12550
F838        F  0.79023247  0.40564297  0.10542333    -0.14910
F839        F  0.73403548  0.31699391  0.17121231    -0.14910
F840        F  0.79381176  0.32433337  0.17565081    -0.12550
C841        C  0.61695306  0.88500086  0.40779289     0.25460
C842        C  0.62399288  0.85957783  0.39062147    -0.22650
C843        C  0.60936718  0.83225300  0.39650801     0.20370
C844        C  0.58759211  0.83047121  0.41927061     0.25400
C845        C  0.57997875  0.85618337  0.43631989    -0.22590
C846        C  0.59518459  0.88343268  0.43036221     0.20300
F847        F  0.58921425  0.90872933  0.44644496    -0.12550
F848        F  0.63101721  0.91154883  0.40241337    -0.14910
F849        F  0.57365811  0.80376527  0.42415228    -0.14910
F850        F  0.61620548  0.80733669  0.38017198    -0.12550
C851        C  0.89946063  0.58681102  0.39460900     0.25460
C852        C  0.87626765  0.60777902  0.39069050    -0.22650
C853        C  0.85078130  0.60657779  0.40940315     0.20370
C854        C  0.84850942  0.58443049  0.43163836     0.25400
C855        C  0.87190274  0.56342341  0.43561060    -0.22590
C856        C  0.89736297  0.56491640  0.41677062     0.20300
F857        F  0.92014924  0.54475341  0.41931159    -0.12550
F858        F  0.92436935  0.58763455  0.37690808    -0.14910
F859        F  0.82371218  0.58385945  0.44948819    -0.14910
F860        F  0.82783399  0.62635050  0.40565066    -0.12550
C861        C  0.62358985  0.58927398  0.16188806     0.25460
C862        C  0.62333978  0.61035343  0.13835210    -0.22650
C863        C  0.59995958  0.60922348  0.11726823     0.20370
C864        C  0.57753986  0.58736648  0.11938657     0.25400
C865        C  0.57791574  0.56603972  0.14263631    -0.22590
C866        C  0.60099527  0.56737123  0.16407918     0.20300
F867        F  0.60218830  0.54698998  0.18665014    -0.12550
F868        F  0.64544557  0.59015570  0.18303385    -0.14910
F869        F  0.55516245  0.58731959  0.09876131    -0.14910
F870        F  0.59914076  0.62893901  0.09409551    -0.12550
C871        C  0.89857877  0.59477725  0.08527237     0.25460
C872        C  0.90130657  0.61397774  0.11022550    -0.22650
C873        C  0.92649712  0.63301408  0.11227490     0.20370
C874        C  0.94853533  0.63282467  0.08986091     0.25400
C875        C  0.94599214  0.61341121  0.06509601    -0.22590
C876        C  0.92088427  0.59431466  0.06300043     0.20300
F877        F  0.91760505  0.57572093  0.03903606    -0.12550
F878        F  0.87459346  0.57608566  0.08274513    -0.14910
F879        F  0.97277326  0.65115338  0.09272932    -0.14910
F880        F  0.92953898  0.65222735  0.13579319    -0.12550
C881        C  0.89880311  0.63418254  0.22877790     0.25460
C882        C  0.87504292  0.61543346  0.21956969    -0.22650
C883        C  0.85746598  0.60101473  0.24155071     0.20370
C884        C  0.86153672  0.60752577  0.27189077     0.25400
C885        C  0.88402388  0.62781554  0.28100812    -0.22590
C886        C  0.90347923  0.63997046  0.25923249     0.20300
F887        F  0.92629447  0.65852048  0.26735997    -0.12550
F888        F  0.91610545  0.64878871  0.20834410    -0.14910
F889        F  0.84190119  0.59572225  0.29205835    -0.14910
F890        F  0.83523018  0.58170364  0.23355560    -0.12550
C891        C  0.75010675  0.65892325  0.15770181     0.25460
C892        C  0.73233645  0.64143155  0.13828500    -0.22650
C893        C  0.74607247  0.61811117  0.12173035     0.20370
C894        C  0.77690833  0.61222364  0.12488742     0.25400
C895        C  0.79446259  0.62969083  0.14448038    -0.22590
C896        C  0.78081370  0.65348261  0.16031959     0.20300
F897        F  0.79728514  0.67153585  0.17857047    -0.12550
F898        F  0.73761570  0.68096413  0.17485205    -0.14910
F899        F  0.78940475  0.58894789  0.10950278    -0.14910
F900        F  0.72975254  0.60126582  0.10228177    -0.12550
C901        C  0.91131223  0.89633839  0.33540946     0.25460
C902        C  0.90128904  0.88613506  0.36345326    -0.22650
C903        C  0.91302690  0.89893579  0.38958436     0.20370
C904        C  0.93476703  0.92155237  0.38788070     0.25400
C905        C  0.94529163  0.93191625  0.35978712    -0.22590
C906        C  0.93310226  0.91904091  0.33351025     0.20300
F907        F  0.94223725  0.92821900  0.30593516    -0.12550
F908        F  0.89999995  0.88422147  0.30985818    -0.14910
F909        F  0.94549066  0.93311771  0.41392680    -0.14910
F910        F  0.90347740  0.88934583  0.41688210    -0.12550
C911        C  0.77775429  0.87219230  0.38203594     0.25460
C912        C  0.79390547  0.85182919  0.36392518    -0.22650
C913        C  0.77851124  0.83532310  0.34184173     0.20370
C914        C  0.74762489  0.83824721  0.33852732     0.25400
C915        C  0.73133353  0.85871708  0.35632509    -0.22590
C916        C  0.74659896  0.87565879  0.37822521     0.20300
F917        F  0.73149284  0.89589174  0.39546073    -0.12550
F918        F  0.79199326  0.88824105  0.40365990    -0.14910
F919        F  0.73353529  0.82069870  0.31793754    -0.14910
F920        F  0.79348830  0.81636224  0.32309834    -0.12550
C921        C  0.89109288  0.75971505  0.38089937     0.25460
C922        C  0.87392737  0.77691825  0.36095129    -0.22650
C923        C  0.86040657  0.76280819  0.33626258     0.20370
C924        C  0.86245393  0.73184571  0.33237826     0.25400
C925        C  0.87936660  0.71419869  0.35235891    -0.22590
C926        C  0.89401528  0.72854568  0.37652387     0.20300
F927        F  0.91111523  0.71248040  0.39587334    -0.12550
F928        F  0.90405528  0.77288329  0.40510150    -0.14910
F929        F  0.84663511  0.71906372  0.30969580    -0.14910
F930        F  0.84428959  0.77908478  0.31623312    -0.12550
C931        C  0.63144355  0.93509480  0.08550242     0.25460
C932        C  0.65598081  0.93531254  0.06538935    -0.22650
C933        C  0.67867911  0.91349104  0.06846637     0.20370
C934        C  0.67631416  0.89134463  0.09063862     0.25400
C935        C  0.65149138  0.89098124  0.11030657    -0.22590
C936        C  0.62930660  0.91321817  0.10776332     0.20300
F937        F  0.60511768  0.91331667  0.12644297    -0.12550
F938        F  0.60953712  0.95630918  0.08385656    -0.14910
F939        F  0.69838843  0.87039426  0.09311955    -0.14910
F940        F  0.70267021  0.91304295  0.04954255    -0.12550
C941        C  0.62632762  0.84481160  0.23867232     0.25460
C942        C  0.64454461  0.86130317  0.21866571    -0.22650
C943        C  0.66367951  0.88360416  0.23035462     0.20370
C944        C  0.66594881  0.88787436  0.26131502     0.25400
C945        C  0.65016280  0.86912331  0.28134939    -0.22590
C946        C  0.62947562  0.84828733  0.26966987     0.20300
F947        F  0.61389445  0.82963605  0.28808895    -0.12550
F948        F  0.60619762  0.82439759  0.22823554    -0.14910
F949        F  0.68484525  0.90943538  0.27177297    -0.14910
F950        F  0.68190151  0.89985721  0.21207197    -0.12550
C951        C  0.62830271  0.76169015  0.15504911     0.25460
C952        C  0.64661244  0.78199919  0.13904631    -0.22650
C953        C  0.66617444  0.77059048  0.11685673     0.20370
C954        C  0.66863802  0.73958987  0.11214544     0.25400
C955        C  0.65262594  0.71923854  0.13035144    -0.22590
C956        C  0.63170482  0.73068351  0.15121793     0.20300
F957        F  0.61598170  0.71200481  0.16949118    -0.12550
F958        F  0.60767815  0.77181602  0.17523570    -0.14910
F959        F  0.68770172  0.72941210  0.09051215    -0.14910
F960        F  0.68444966  0.78916870  0.10100326    -0.12550
C961        C  0.12656903  0.58812572  0.39191801     0.25460
C962        C  0.14871120  0.61049551  0.38934544    -0.22650
C963        C  0.17319584  0.61019631  0.40926223     0.20370
C964        C  0.17550457  0.58779035  0.43124763     0.25400
C965        C  0.15317164  0.56551019  0.43388286    -0.22590
C966        C  0.12872256  0.56595703  0.41391576     0.20300
F967        F  0.10704943  0.54449812  0.41525210    -0.12550
F968        F  0.10256840  0.58788323  0.37319962    -0.14910
F969        F  0.19923572  0.58826870  0.45029018    -0.14910
F970        F  0.19526306  0.63115338  0.40695389    -0.12550
C971        C  0.43055112  0.87699168  0.38887557     0.25460
C972        C  0.40509707  0.85834124  0.38990985    -0.22650
C973        C  0.40270459  0.83678190  0.41288673     0.20370
C974        C  0.42506228  0.83447801  0.43484651     0.25400
C975        C  0.44987312  0.85405031  0.43444949    -0.22590
C976        C  0.45259991  0.87500548  0.41101871     0.20300
F977        F  0.47675440  0.89361138  0.40952598    -0.12550
F978        F  0.43352340  0.89797993  0.36701659    -0.14910
F979        F  0.42181194  0.81402213  0.45716469    -0.14910
F980        F  0.37867722  0.81799065  0.41407255    -0.12550
C981        C  0.42856056  0.61154656  0.12044730     0.25460
C982        C  0.40270819  0.61043684  0.13872303    -0.22650
C983        C  0.40032976  0.58741123  0.16030787     0.20370
C984        C  0.42300840  0.56560260  0.16294168     0.25400
C985        C  0.44829201  0.56635553  0.14393269    -0.22590
C986        C  0.45103055  0.58978366  0.12303264     0.20300
F987        F  0.47566957  0.59167027  0.10504154    -0.12550
F988        F  0.43170133  0.63321024  0.09927575    -0.14910
F989        F  0.41970025  0.54314359  0.18324543    -0.14910
F990        F  0.37621386  0.58612937  0.17902335    -0.12550
C991        C  0.39290878  0.93536635  0.08908633     0.25460
C992        C  0.37003184  0.93395405  0.06739919    -0.22650
C993        C  0.34885427  0.91051332  0.06894836     0.20370
C994        C  0.35121570  0.88834061  0.09115144     0.25400
C995        C  0.37452788  0.88949972  0.11243161    -0.22590
C996        C  0.39503478  0.91348356  0.11140615     0.20300
F997        F  0.41776735  0.91525923  0.13155706    -0.12550
F998        F  0.41319039  0.95818106  0.08885348    -0.14910
F999        F  0.33058202  0.86586632  0.09200898    -0.14910
F1000       F  0.32650043  0.90847749  0.04840496    -0.12550
C1001       C  0.35307280  0.84249040  0.23462360     0.25460
C1002       C  0.37716447  0.85692947  0.22019423    -0.22650
C1003       C  0.39715579  0.87435857  0.23724099     0.20370
C1004       C  0.39318963  0.87696713  0.26844016     0.25400
C1005       C  0.36928396  0.86194553  0.28292505    -0.22590
C1006       C  0.34952825  0.84440852  0.26556261     0.20300
F1007       F  0.32706448  0.82834345  0.27860537    -0.12550
F1008       F  0.33294688  0.82612646  0.21862033    -0.14910
F1009       F  0.41244499  0.89439579  0.28437594    -0.14910
F1010       F  0.42082407  0.88817674  0.22381655    -0.12550
C1011       C  0.35593933  0.76425760  0.15849808     0.25460
C1012       C  0.37732442  0.78036101  0.14170699    -0.22650
C1013       C  0.39455060  0.76503188  0.11993815     0.20370
C1014       C  0.39058877  0.73393682  0.11547876     0.25400
C1015       C  0.36939107  0.71803398  0.13276078    -0.22590
C1016       C  0.35256532  0.73350474  0.15458564     0.20300
F1017       F  0.33307407  0.71864573  0.17273367    -0.12550
F1018       F  0.33802824  0.77837765  0.17885740    -0.14910
F1019       F  0.40712711  0.71947199  0.09423944    -0.14910
F1020       F  0.41551686  0.77996301  0.10356278    -0.12550
C1021       C  0.09854924  0.93336855  0.38165275     0.25460
C1022       C  0.07743163  0.93254823  0.35826897    -0.22650
C1023       C  0.07938587  0.90939999  0.33675244     0.20370
C1024       C  0.10182920  0.88730673  0.33887731     0.25400
C1025       C  0.12281011  0.88806825  0.36247899    -0.22590
C1026       C  0.12086120  0.91139192  0.38378605     0.20300
F1027       F  0.14033762  0.91270613  0.40711472    -0.12550
F1028       F  0.09799316  0.95587785  0.40229633    -0.14910
F1029       F  0.10341726  0.86556649  0.31748738    -0.14910
F1030       F  0.05921934  0.90776266  0.31403581    -0.12550
C1031       C  0.28403393  0.85139202  0.38741726     0.25460
C1032       C  0.29539609  0.87200482  0.36630918    -0.22650
C1033       C  0.27494748  0.89063809  0.35098895     0.20370
C1034       C  0.24397035  0.88597765  0.35361701     0.25400
C1035       C  0.23268218  0.86353063  0.37279248    -0.22590
C1036       C  0.25301566  0.84769234  0.39104680     0.20300
F1037       F  0.24288385  0.82733079  0.41134441    -0.12550
F1038       F  0.30273167  0.83293061  0.40278622    -0.14910
F1039       F  0.22534072  0.90177046  0.33547163    -0.14910
F1040       F  0.28498933  0.91230402  0.33203330    -0.12550
C1041       C  0.13674119  0.76496565  0.37553400     0.25460
C1042       C  0.15911432  0.78039624  0.35926843    -0.22650
C1043       C  0.17766530  0.76402473  0.33942711     0.20370
C1044       C  0.17441179  0.73299808  0.33634967     0.25400
C1045       C  0.15204426  0.71752733  0.35242880    -0.22590
C1046       C  0.13323229  0.73374571  0.37212362     0.20300
F1047       F  0.11112323  0.71947296  0.38758224    -0.12550
F1048       F  0.11873376  0.77996434  0.39516807    -0.14910
F1049       F  0.19346300  0.71792851  0.31774987    -0.14910
F1050       F  0.19886191  0.77815693  0.32259614    -0.12550
C1051       C  0.10199409  0.63198760  0.06244649     0.25460
C1052       C  0.07774734  0.61183601  0.06450151    -0.22650
C1053       C  0.07660655  0.59158028  0.08861277     0.20370
C1054       C  0.09912169  0.59175209  0.11050655     0.25400
C1055       C  0.12332627  0.61213370  0.10865779    -0.22590
C1056       C  0.12451081  0.63218128  0.08425273     0.20300
F1057       F  0.14697334  0.65271213  0.08191094    -0.12550
F1058       F  0.10413821  0.65129803  0.03900233    -0.14910
F1059       F  0.09734658  0.57176509  0.13339684    -0.14910
F1060       F  0.05319206  0.57221157  0.09148970    -0.12550
C1061       C  0.24393286  0.65212506  0.15309789     0.25460
C1062       C  0.23089839  0.62648640  0.14015903    -0.22650
C1063       C  0.24888444  0.60735941  0.12238702     0.20370
C1064       C  0.27963862  0.61358196  0.11823177     0.25400
C1065       C  0.29280720  0.63890576  0.13200516    -0.22590
C1066       C  0.27445374  0.65786668  0.14969394     0.20300
F1067       F  0.28615474  0.68162332  0.16478862    -0.12550
F1068       F  0.22703196  0.67167448  0.16950476    -0.14910
F1069       F  0.29640863  0.59500438  0.10067996    -0.14910
F1070       F  0.23691201  0.58226358  0.10983586    -0.12550
C1071       C  0.12935717  0.64045372  0.22732622     0.25460
C1072       C  0.15142251  0.61972632  0.21789786    -0.22650
C1073       C  0.16820459  0.60437734  0.23977399     0.20370
C1074       C  0.16472145  0.61125541  0.27016508     0.25400
C1075       C  0.14373172  0.63306514  0.27952761    -0.22590
C1076       C  0.12535427  0.64681410  0.25786139     0.20300
F1077       F  0.10412961  0.66719404  0.26619156    -0.12550
F1078       F  0.11304162  0.65611079  0.20698645    -0.14910
F1079       F  0.18342864  0.59802698  0.29017798    -0.14910
F1080       F  0.18899945  0.58348943  0.23161078    -0.12550
C1081       C  0.60462150  0.83969250  0.61059309     0.25460
C1082       C  0.62410124  0.86461908  0.61072574    -0.22650
C1083       C  0.62172500  0.88613526  0.58791495     0.20370
C1084       C  0.59966537  0.88338849  0.56586831     0.25400
C1085       C  0.57969649  0.85880675  0.56594042    -0.22590
C1086       C  0.58274313  0.83666315  0.58823161     0.20300
F1087       F  0.56399300  0.81258949  0.58895126    -0.12550
F1088       F  0.60694455  0.81818578  0.63200838    -0.14910
F1089       F  0.59805733  0.90472990  0.54422048    -0.14910
F1090       F  0.64030918  0.91034448  0.58746979    -0.12550
C1091       C  0.62180795  0.58903492  0.84231889     0.25460
C1092       C  0.62139582  0.60915288  0.86674669    -0.22650
C1093       C  0.59778929  0.60751981  0.88765699     0.20370
C1094       C  0.57545122  0.58565864  0.88477717     0.25400
C1095       C  0.57606643  0.56505335  0.86072326    -0.22590
C1096       C  0.59920934  0.56727888  0.83920620     0.20300
F1097       F  0.60052275  0.54784501  0.81569765    -0.12550
F1098       F  0.64394514  0.59064633  0.82132722    -0.14910
F1099       F  0.55302351  0.58483230  0.90551353    -0.14910
F1100       F  0.59679354  0.62666758  0.91141750    -0.12550
C1101       C  0.89684047  0.60983720  0.58729646     0.25460
C1102       C  0.87603590  0.61083098  0.61103918    -0.22650
C1103       C  0.85213189  0.59007723  0.61144971     0.20370
C1104       C  0.84954855  0.56824922  0.58884397     0.25400
C1105       C  0.87108388  0.56656892  0.56568963    -0.22590
C1106       C  0.89449432  0.58787764  0.56495377     0.20300
F1107       F  0.91515036  0.58756514  0.54244403    -0.12550
F1108       F  0.92007412  0.62960439  0.58623701    -0.14910
F1109       F  0.82663339  0.54813586  0.59022432    -0.14910
F1110       F  0.83119314  0.59104884  0.63367720    -0.12550
C1111       C  0.92471174  0.59478591  0.88859705     0.25460
C1112       C  0.90130970  0.61605228  0.88976075    -0.22650
C1113       C  0.90097975  0.63738902  0.91315816     0.20370
C1114       C  0.92346319  0.63727182  0.93505945     0.25400
C1115       C  0.94656184  0.61563778  0.93417659    -0.22590
C1116       C  0.94699057  0.59444911  0.91067719     0.20300
F1117       F  0.96933482  0.57370271  0.90874572    -0.12550
F1118       F  0.92566424  0.57388071  0.86636099    -0.14910
F1119       F  0.92218420  0.65785898  0.95757997    -0.14910
F1120       F  0.87913876  0.65870661  0.91456241    -0.12550
C1121       C  0.77519785  0.60580818  0.88057200     0.25460
C1122       C  0.79247359  0.62385436  0.86121889    -0.22650
C1123       C  0.77891628  0.64877547  0.84751737     0.20370
C1124       C  0.74854415  0.65472501  0.85160245     0.25400
C1125       C  0.73093667  0.63689373  0.87088213    -0.22590
C1126       C  0.74457686  0.61233409  0.88545274     0.20300
F1127       F  0.72840045  0.59488058  0.90450601    -0.12550
F1128       F  0.78775210  0.58161524  0.89414566    -0.14910
F1129       F  0.73622430  0.67763020  0.83579774    -0.14910
F1130       F  0.79520848  0.66763146  0.82996201    -0.12550
C1131       C  0.89133007  0.60839917  0.76562561     0.25460
C1132       C  0.86906369  0.62405995  0.78197889    -0.22650
C1133       C  0.85219961  0.64635690  0.76726767     0.20370
C1134       C  0.85645928  0.65202819  0.73696546     0.25400
C1135       C  0.87874859  0.63672939  0.72057359    -0.22590
C1136       C  0.89616864  0.61474339  0.73507287     0.20300
F1137       F  0.91807565  0.59983512  0.71982826    -0.12550
F1138       F  0.90800533  0.58673812  0.77903284    -0.14910
F1139       F  0.83834414  0.67247286  0.72349181    -0.14910
F1140       F  0.83173046  0.66331084  0.78233795    -0.12550
C1141       C  0.67660460  0.90670570  0.89062774     0.25460
C1142       C  0.65179030  0.88712367  0.89005536    -0.22650
C1143       C  0.62928921  0.89007124  0.91199448     0.20370
C1144       C  0.63108825  0.91259267  0.93377922     0.25400
C1145       C  0.65566667  0.93256125  0.93431975    -0.22590
C1146       C  0.67868424  0.92910650  0.91275847     0.20300
F1147       F  0.70278038  0.94783663  0.91259136    -0.12550
F1148       F  0.69894101  0.90391218  0.86995643    -0.14910
F1149       F  0.60882928  0.91456880  0.95462568    -0.14910
F1150       F  0.60508840  0.87146890  0.91189014    -0.12550
C1151       C  0.66277179  0.83714698  0.76304816     0.25460
C1152       C  0.64544067  0.85632042  0.78146549    -0.22650
C1153       C  0.63105031  0.88128187  0.76828897     0.20370
C1154       C  0.63426102  0.88689003  0.73739431     0.25400
C1155       C  0.65154503  0.86742278  0.71941315    -0.22590
C1156       C  0.66506460  0.84219750  0.73244062     0.20300
F1157       F  0.68119146  0.82256770  0.71540909    -0.12550
F1158       F  0.67864865  0.81395560  0.77475519    -0.14910
F1159       F  0.62121067  0.91157177  0.72522176    -0.14910
F1160       F  0.61387183  0.90008674  0.78519053    -0.12550
C1161       C  0.63090305  0.76433958  0.88341605     0.25460
C1162       C  0.64658603  0.77851844  0.85985872    -0.22650
C1163       C  0.66641145  0.76133122  0.84209500     0.20370
C1164       C  0.66983630  0.73071352  0.84699739     0.25400
C1165       C  0.65458864  0.71647823  0.87062289    -0.22590
C1166       C  0.63488054  0.73341272  0.88875373     0.20300
F1167       F  0.61996879  0.72015335  0.91179118    -0.12550
F1168       F  0.61155933  0.78027536  0.90091966    -0.14910
F1169       F  0.68805070  0.71479888  0.82829614    -0.14910
F1170       F  0.68320827  0.77431537  0.82022164    -0.12550
C1171       C  0.90696968  0.90876720  0.61452667     0.25460
C1172       C  0.90184514  0.88917570  0.63852437    -0.22650
C1173       C  0.91852997  0.89262657  0.66500635     0.20370
C1174       C  0.94024560  0.91539110  0.66734291     0.25400
C1175       C  0.94585025  0.93479225  0.64299844    -0.22590
C1176       C  0.92876931  0.93122632  0.61661634     0.20300
F1177       F  0.93285112  0.94969427  0.59275564    -0.12550
F1178       F  0.89106366  0.90581992  0.58876340    -0.14910
F1179       F  0.95611531  0.91799898  0.69315476    -0.14910
F1180       F  0.91346927  0.87420738  0.68872033    -0.12550
C1181       C  0.85385147  0.76443109  0.65956848     0.25460
C1182       C  0.87085390  0.78046595  0.63833163    -0.22650
C1183       C  0.89271618  0.76504541  0.62129226     0.20370
C1184       C  0.89709078  0.73396971  0.62525063     0.25400
C1185       C  0.87969635  0.71805880  0.64633865    -0.22590
C1186       C  0.85782406  0.73365404  0.66311811     0.20300
F1187       F  0.83967072  0.71893135  0.68271099    -0.12550
F1188       F  0.83330482  0.77865312  0.67720367    -0.14910
F1189       F  0.91845667  0.71953927  0.60882282    -0.14910
F1190       F  0.90928450  0.77988890  0.60044313    -0.12550
C1191       C  0.77784432  0.87857817  0.61654365     0.25460
C1192       C  0.79367924  0.85937689  0.63588882    -0.22650
C1193       C  0.77837632  0.84578330  0.65982411     0.20370
C1194       C  0.74774037  0.85022294  0.66384425     0.25400
C1195       C  0.73154170  0.86951048  0.64478162    -0.22590
C1196       C  0.74689606  0.88364094  0.62095955     0.20300
F1197       F  0.73208420  0.90248018  0.60222865    -0.12550
F1198       F  0.79216277  0.89184305  0.59313807    -0.14910
F1199       F  0.73382103  0.83478679  0.68612313    -0.14910
F1200       F  0.79322719  0.82800992  0.67956589    -0.12550
C1201       C  0.42313040  0.83776296  0.61163710     0.25460
C1202       C  0.40229521  0.86163672  0.61145685    -0.22650
C1203       C  0.40417004  0.88323208  0.58855928     0.20370
C1204       C  0.42629349  0.88108379  0.56634346     0.25400
C1205       C  0.44717858  0.85728561  0.56644169    -0.22590
C1206       C  0.44530861  0.83553940  0.58926148     0.20300
F1207       F  0.46528428  0.81246424  0.59028986    -0.12550
F1208       F  0.42158584  0.81617768  0.63305340    -0.14910
F1209       F  0.42686346  0.90209951  0.54431973    -0.14910
F1210       F  0.38471376  0.90676579  0.58786028    -0.12550
C1211       C  0.17776755  0.56850950  0.58690496     0.25460
C1212       C  0.15607142  0.56788031  0.56404980    -0.22650
C1213       C  0.13346300  0.59006804  0.56373646     0.20370
C1214       C  0.13200150  0.61187567  0.58632396     0.25400
C1215       C  0.15283830  0.61166598  0.60984283    -0.22590
C1216       C  0.17599172  0.59008851  0.60977062     0.20300
F1217       F  0.19672311  0.58978478  0.63203636    -0.12550
F1218       F  0.19988781  0.54747488  0.58787378    -0.14910
F1219       F  0.10945711  0.63247172  0.58590544    -0.14910
F1220       F  0.11268549  0.59063733  0.54152633    -0.12550
C1221       C  0.39804291  0.58070104  0.87859800     0.25460
C1222       C  0.40011643  0.60676958  0.86097308    -0.22650
C1223       C  0.42429277  0.60973738  0.84068071     0.20370
C1224       C  0.44638333  0.58736150  0.83865995     0.25400
C1225       C  0.44483999  0.56189846  0.85717295    -0.22590
C1226       C  0.42029180  0.55856506  0.87683070     0.20300
F1227       F  0.41778867  0.53371501  0.89428329    -0.12550
F1228       F  0.37501958  0.57714301  0.89835553    -0.14910
F1229       F  0.46989278  0.59116334  0.81952102    -0.14910
F1230       F  0.42650620  0.63431240  0.82280402    -0.12550
C1231       C  0.08988624  0.58721290  0.92283833     0.25460
C1232       C  0.07852490  0.61431884  0.93505102    -0.22650
C1233       C  0.09068410  0.64180927  0.92482116     0.20370
C1234       C  0.11334472  0.64209708  0.90300385     0.25400
C1235       C  0.12424024  0.61509694  0.89087086    -0.22590
C1236       C  0.11243614  0.58769611  0.90086034     0.20300
F1237       F  0.12279572  0.56137538  0.88926045    -0.12550
F1238       F  0.07913771  0.56014313  0.93189561    -0.14910
F1239       F  0.12433635  0.66884088  0.89325613    -0.14910
F1240       F  0.08067850  0.66855983  0.93572684    -0.12550
C1241       C  0.24805539  0.61263928  0.87492731     0.25460
C1242       C  0.23047673  0.63134301  0.85667077    -0.22650
C1243       C  0.24410549  0.65582137  0.84212320     0.20370
C1244       C  0.27489137  0.66094044  0.84487174     0.25400
C1245       C  0.29272473  0.64213041  0.86291431    -0.22590
C1246       C  0.27893219  0.61802611  0.87810296     0.20300
F1247       F  0.29527886  0.59980505  0.89617583    -0.12550
F1248       F  0.23553564  0.58857101  0.88884762    -0.14910
F1249       F  0.28738441  0.68380063  0.82900529    -0.14910
F1250       F  0.22754661  0.67473015  0.82492665    -0.12550
C1251       C  0.16737267  0.60164902  0.75985903     0.25460
C1252       C  0.14990825  0.61666803  0.78162525    -0.22650
C1253       C  0.12665891  0.63586595  0.77218891     0.20370
C1254       C  0.12264771  0.64178619  0.74169799     0.25400
C1255       C  0.14224294  0.62921762  0.72016528    -0.22590
C1256       C  0.16389650  0.60815923  0.72947041     0.20300
F1257       F  0.18344432  0.59571773  0.70951742    -0.12550
F1258       F  0.18910912  0.58193236  0.76818068    -0.14910
F1259       F  0.10052081  0.66103132  0.73332096    -0.14910
F1260       F  0.10941029  0.65088274  0.79248187    -0.12550
C1261       C  0.09412091  0.88521917  0.62383632     0.25460
C1262       C  0.12042590  0.88724275  0.64107511    -0.22650
C1263       C  0.12386983  0.91169099  0.66095570     0.20370
C1264       C  0.10168918  0.93398241  0.66306395     0.25400
C1265       C  0.07593441  0.93242851  0.64502303    -0.22590
C1266       C  0.07218992  0.90772396  0.62563977     0.20300
F1267       F  0.04710441  0.90529207  0.60855563    -0.12550
F1268       F  0.09009641  0.86195266  0.60448810    -0.14910
F1269       F  0.10593278  0.95767506  0.68184959    -0.14910
F1270       F  0.14870842  0.91393921  0.67842165    -0.12550
C1271       C  0.24094696  0.88442008  0.64816512     0.25460
C1272       C  0.22979382  0.86170852  0.62919018    -0.22650
C1273       C  0.25025797  0.84512874  0.61146142     0.20370
C1274       C  0.28123539  0.84870347  0.61523134     0.25400
C1275       C  0.29233426  0.86962369  0.63614426    -0.22590
C1276       C  0.27190345  0.88861213  0.65122970     0.20300
F1277       F  0.28195633  0.91010604  0.67041613    -0.12550
F1278       F  0.22212106  0.90086432  0.66577894    -0.14910
F1279       F  0.30016780  0.82989274  0.60029277    -0.14910
F1280       F  0.24025657  0.82418447  0.59165354    -0.12550
C1281       C  0.17187868  0.76449246  0.66686527     0.25460
C1282       C  0.15567224  0.77977935  0.64463069    -0.22650
C1283       C  0.13609573  0.76348167  0.62601941     0.20370
C1284       C  0.13318650  0.73224987  0.62930550     0.25400
C1285       C  0.14981442  0.71689042  0.65129404    -0.22590
C1286       C  0.16920389  0.73341776  0.67000452     0.20300
F1287       F  0.18637491  0.71936638  0.69082426    -0.12550
F1288       F  0.19058117  0.77972652  0.68550514    -0.14910
F1289       F  0.11396866  0.71707951  0.61117649    -0.14910
F1290       F  0.12057548  0.77765702  0.60404906    -0.12550
C1291       C  0.35000787  0.90780050  0.89049674     0.25460
C1292       C  0.37496790  0.88839275  0.88883035    -0.22650
C1293       C  0.39793336  0.89121162  0.91017068     0.20370
C1294       C  0.39605169  0.91286332  0.93280235     0.25400
C1295       C  0.37110038  0.93230499  0.93468927    -0.22590
C1296       C  0.34801205  0.92951237  0.91331430     0.20300
F1297       F  0.32375851  0.94806292  0.91416093    -0.12550
F1298       F  0.32719203  0.90520912  0.87052500    -0.14910
F1299       F  0.41851277  0.91433219  0.95328172    -0.14910
F1300       F  0.42244303  0.87300851  0.90899659    -0.12550
C1301       C  0.36387760  0.76798458  0.88703212     0.25460
C1302       C  0.38345427  0.77870208  0.86460043    -0.22650
C1303       C  0.40152126  0.75795789  0.84882567     0.20370
C1304       C  0.39741883  0.72707711  0.85267318     0.25400
C1305       C  0.37591947  0.71630535  0.87326223    -0.22590
C1306       C  0.36061150  0.73709945  0.89169136     0.20300
F1307       F  0.34113233  0.72749819  0.91314826    -0.12550
F1308       F  0.34598133  0.78713617  0.90278718    -0.14910
F1309       F  0.41268843  0.70793110  0.83436460    -0.14910
F1310       F  0.42204403  0.76757756  0.82836617    -0.12550
C1311       C  0.38817286  0.87352765  0.76609012     0.25460
C1312       C  0.37099068  0.85190495  0.78154655    -0.22650
C1313       C  0.35094923  0.83370389  0.76524251     0.20370
C1314       C  0.34856623  0.83655652  0.73423902     0.25400
C1315       C  0.36554450  0.85822251  0.71872689    -0.22590
C1316       C  0.38543975  0.87667895  0.73489080     0.20300
F1317       F  0.40167496  0.89817437  0.72059213    -0.12550
F1318       F  0.40802675  0.89114242  0.78106960    -0.14910
F1319       F  0.32962622  0.81791886  0.71925425    -0.14910
F1320       F  0.33327842  0.81324705  0.77942012    -0.12550
C1321       C  0.12594244  0.41299810  0.60801251     0.25460
C1322       C  0.14799355  0.39051447  0.61041927    -0.22650
C1323       C  0.17272287  0.39094584  0.59059756     0.20370
C1324       C  0.17527382  0.41353373  0.56878801     0.25400
C1325       C  0.15297374  0.43591225  0.56628331    -0.22590
C1326       C  0.12838527  0.43539193  0.58628541     0.20300
F1327       F  0.10674555  0.45691277  0.58518318    -0.12550
F1328       F  0.10163277  0.41305796  0.62653959    -0.14910
F1329       F  0.19919197  0.41309961  0.54977279    -0.14910
F1330       F  0.19471822  0.36987952  0.59274867    -0.12550
C1331       C  0.42843549  0.11847855  0.61341177     0.25460
C1332       C  0.40297036  0.13719991  0.61253874    -0.22650
C1333       C  0.40103189  0.15920406  0.58992212     0.20370
C1334       C  0.42365031  0.16169019  0.56807329     0.25400
C1335       C  0.44841992  0.14204079  0.56830017    -0.22590
C1336       C  0.45083438  0.12078911  0.59145947     0.20300
F1337       F  0.47500850  0.10218132  0.59285563    -0.12550
F1338       F  0.43112848  0.09710909  0.63491445    -0.14910
F1339       F  0.42068731  0.18243498  0.54600082    -0.14910
F1340       F  0.37725506  0.17834593  0.58898580    -0.12550
C1341       C  0.40175722  0.40831115  0.83905621     0.25460
C1342       C  0.40129920  0.38810460  0.86331513    -0.22650
C1343       C  0.42395669  0.38999809  0.88508964     0.20370
C1344       C  0.44655606  0.41160702  0.88279564     0.25400
C1345       C  0.44705182  0.43195864  0.85867974    -0.22590
C1346       C  0.42452830  0.43000529  0.83668965     0.20300
F1347       F  0.42410963  0.44950121  0.81332530    -0.12550
F1348       F  0.38054059  0.40664027  0.81731770    -0.14910
F1349       F  0.46829461  0.41229063  0.90408194    -0.14910
F1350       F  0.42401103  0.37109413  0.90894646    -0.12550
C1351       C  0.34833304  0.09233349  0.89486687     0.25460
C1352       C  0.37563667  0.10706451  0.88903656    -0.22650
C1353       C  0.40105452  0.09984248  0.90596662     0.20370
C1354       C  0.39942260  0.07800534  0.92834065     0.25400
C1355       C  0.37208818  0.06304074  0.93449011    -0.22590
C1356       C  0.34647352  0.07059779  0.91749966     0.20300
F1357       F  0.31966501  0.05688943  0.92254104    -0.12550
F1358       F  0.32332507  0.09950051  0.87904554    -0.14910
F1359       F  0.42466557  0.07192600  0.94422656    -0.14910
F1360       F  0.42762051  0.11393026  0.90066658    -0.12550
C1361       C  0.40130047  0.23681278  0.84711287     0.25460
C1362       C  0.38345351  0.21623477  0.86321846    -0.22650
C1363       C  0.36354434  0.22725208  0.88528038     0.20370
C1364       C  0.35991781  0.25820167  0.88943425     0.25400
C1365       C  0.37540883  0.27873728  0.87103659    -0.22590
C1366       C  0.39700416  0.26774513  0.85062175     0.20300
F1367       F  0.41225744  0.28672917  0.83226630    -0.12550
F1368       F  0.42187243  0.22694398  0.82675040    -0.14910
F1369       F  0.34002754  0.26811746  0.91044193    -0.14910
F1370       F  0.34574603  0.20825324  0.90118261    -0.12550
C1371       C  0.39072399  0.12075797  0.76614288     0.25460
C1372       C  0.37178648  0.14079273  0.78180417    -0.22650
C1373       C  0.34975269  0.15675816  0.76597908     0.20370
C1374       C  0.34695979  0.15324828  0.73510278     0.25400
C1375       C  0.36563772  0.13305880  0.71925221    -0.22590
C1376       C  0.38769448  0.11693495  0.73502742     0.20300
F1377       F  0.40598114  0.09726415  0.72041950    -0.12550
F1378       F  0.41261142  0.10554177  0.78083942    -0.14910
F1379       F  0.32622796  0.17017879  0.72058570    -0.14910
F1380       F  0.33077844  0.17587721  0.78050984    -0.12550
C1381       C  0.10671631  0.10646466  0.66560512     0.25460
C1382       C  0.12324738  0.11024597  0.63896217    -0.22650
C1383       C  0.11798951  0.09086859  0.61472574     0.20370
C1384       C  0.09610490  0.06844157  0.61667050     0.25400
C1385       C  0.07903910  0.06464783  0.64315004    -0.22590
C1386       C  0.08493177  0.08371025  0.66780778     0.20300
F1387       F  0.06926518  0.08081153  0.69382992    -0.12550
F1388       F  0.11188117  0.12464044  0.68954781    -0.14910
F1389       F  0.09184143  0.05032517  0.59250435    -0.14910
F1390       F  0.13372739  0.09411882  0.58878171    -0.12550
C1391       C  0.13168655  0.26788714  0.62140196     0.25460
C1392       C  0.14741608  0.28230387  0.64479731    -0.22650
C1393       C  0.16555289  0.26480243  0.66380483     0.20370
C1394       C  0.16740299  0.23379224  0.66001284     0.25400
C1395       C  0.15221629  0.21946379  0.63643440    -0.22590
C1396       C  0.13421483  0.23663247  0.61717406     0.20300
F1397       F  0.11976664  0.22327696  0.59394191    -0.12550
F1398       F  0.11364499  0.28393361  0.60290911    -0.14910
F1399       F  0.18455266  0.21762179  0.67926127    -0.14910
F1400       F  0.18224877  0.27779223  0.68573933    -0.12550
C1401       C  0.24901272  0.16350236  0.64738507     0.25460
C1402       C  0.23106602  0.14345634  0.63064545    -0.22650
C1403       C  0.24490787  0.11812971  0.61726856     0.20370
C1404       C  0.27588600  0.11295241  0.62102706     0.25400
C1405       C  0.29330190  0.13326929  0.63771965    -0.22590
C1406       C  0.27970474  0.15890066  0.65005722     0.20300
F1407       F  0.29621478  0.17921647  0.66573102    -0.12550
F1408       F  0.23678402  0.18704815  0.66256452    -0.14910
F1409       F  0.28864399  0.08781597  0.60921692    -0.14910
F1410       F  0.22857559  0.09845721  0.60068362    -0.12550
C1411       C  0.10925358  0.33518518  0.89765367     0.25460
C1412       C  0.12421248  0.36231015  0.89173416    -0.22650
C1413       C  0.11729792  0.38789050  0.90875403     0.20370
C1414       C  0.09529490  0.38665827  0.93117225     0.25400
C1415       C  0.07971730  0.35961247  0.93709100    -0.22590
C1416       C  0.08727208  0.33374072  0.92022794     0.20300
F1417       F  0.07301487  0.30718933  0.92502743    -0.12550
F1418       F  0.11578180  0.31017225  0.88133688    -0.14910
F1419       F  0.08934630  0.41209858  0.94702910    -0.14910
F1420       F  0.13155645  0.41430261  0.90323583    -0.12550
C1421       C  0.24697456  0.34042937  0.83470063     0.25460
C1422       C  0.23064756  0.35998357  0.85359559    -0.22650
C1423       C  0.24613748  0.37619848  0.87588901     0.20370
C1424       C  0.27735992  0.37293528  0.87906810     0.25400
C1425       C  0.29348946  0.35347967  0.85998232    -0.22590
C1426       C  0.27801044  0.33753481  0.83762030     0.20300
F1427       F  0.29305671  0.31900292  0.81848396    -0.12550
F1428       F  0.23278352  0.32354555  0.81365016    -0.14910
F1429       F  0.29170173  0.38813711  0.90123029    -0.14910
F1430       F  0.23116273  0.39552307  0.89424760    -0.12550
C1431       C  0.12405353  0.35277403  0.77108862     0.25460
C1432       C  0.14626604  0.37250588  0.78190298    -0.22650
C1433       C  0.16182912  0.39076392  0.76127477     0.20370
C1434       C  0.15812516  0.38663221  0.73044580     0.25400
C1435       C  0.13772125  0.36504382  0.71954790    -0.22590
C1436       C  0.11942895  0.34955673  0.74025344     0.20300
F1437       F  0.09807780  0.33000949  0.73061884    -0.12550
F1438       F  0.10848440  0.33470588  0.79008705    -0.14910
F1439       F  0.17640930  0.40201012  0.71147894    -0.14910
F1440       F  0.18201349  0.41150516  0.77095131    -0.12550
C1441       C  0.60596206  0.16223405  0.60624177     0.25460
C1442       C  0.62334870  0.13600828  0.60894465    -0.22650
C1443       C  0.61916720  0.11229931  0.58869167     0.20370
C1444       C  0.59729975  0.11430872  0.56643618     0.25400
C1445       C  0.57927865  0.14030825  0.56384940    -0.22590
C1446       C  0.58422042  0.16451149  0.58370379     0.20300
F1447       F  0.56746309  0.18997381  0.58195083    -0.12550
F1448       F  0.61006093  0.18558133  0.62548577    -0.14910
F1449       F  0.59388790  0.09071534  0.54735716    -0.14910
F1450       F  0.63582069  0.08681088  0.59099662    -0.12550
C1451       C  0.85238761  0.38958783  0.59211238     0.25460
C1452       C  0.87706164  0.38906148  0.61176412    -0.22650
C1453       C  0.89905720  0.41157724  0.60951224     0.20370
C1454       C  0.89668295  0.43405863  0.58791573     0.25400
C1455       C  0.87218287  0.43460079  0.56802771    -0.22590
C1456       C  0.84987970  0.41226919  0.57048941     0.20300
F1457       F  0.82605719  0.41193230  0.55155304    -0.12550
F1458       F  0.83044893  0.36846976  0.59421214    -0.14910
F1459       F  0.91829358  0.45558911  0.58677292    -0.14910
F1460       F  0.92323716  0.41152942  0.62800144    -0.12550
C1461       C  0.62003055  0.40585511  0.83765374     0.25460
C1462       C  0.62257648  0.38769333  0.86322541    -0.22650
C1463       C  0.60219429  0.39152116  0.88697679     0.20370
C1464       C  0.57992024  0.41369016  0.88555644     0.25400
C1465       C  0.57739137  0.43225653  0.86009042    -0.22590
C1466       C  0.59748102  0.42779310  0.83594625     0.20300
F1467       F  0.59587789  0.44515444  0.81101164    -0.12550
F1468       F  0.63942633  0.40227736  0.81431693    -0.14910
F1469       F  0.56063669  0.41672863  0.90905403    -0.14910
F1470       F  0.60433636  0.37419144  0.91188784    -0.12550
C1471       C  0.90222814  0.34344670  0.91302921     0.25460
C1472       C  0.90401322  0.36621926  0.89121997    -0.22650
C1473       C  0.92860027  0.38601287  0.89146789     0.20370
C1474       C  0.95071853  0.38348756  0.91342858     0.25400
C1475       C  0.94880560  0.36097757  0.93544894    -0.22590
C1476       C  0.92455593  0.34073650  0.93488263     0.20300
F1477       F  0.92197919  0.31893937  0.95599507    -0.12550
F1478       F  0.87906097  0.32356683  0.91291263    -0.14910
F1479       F  0.97429538  0.40286954  0.91292237    -0.14910
F1480       F  0.93088284  0.40825343  0.87079240    -0.12550
C1481       C  0.89715853  0.34887171  0.77201958     0.25460
C1482       C  0.87474186  0.36858857  0.78273653    -0.22650
C1483       C  0.85879283  0.38620862  0.76194695     0.20370
C1484       C  0.86321733  0.38227717  0.73115658     0.25400
C1485       C  0.88459709  0.36147417  0.72041222    -0.22590
C1486       C  0.90247636  0.34590237  0.74125280     0.20300
F1487       F  0.92442938  0.32681595  0.73179659    -0.12550
F1488       F  0.91270472  0.33096346  0.79107523    -0.14910
F1489       F  0.84507009  0.39740604  0.71199078    -0.14910
F1490       F  0.83817562  0.40673393  0.77139163    -0.12550
C1491       C  0.77458492  0.38848607  0.84572236     0.25460
C1492       C  0.79516963  0.37106625  0.86224004    -0.22650
C1493       C  0.78407569  0.35197396  0.88484309     0.20370
C1494       C  0.75314240  0.34892246  0.88938645     0.25400
C1495       C  0.73259821  0.36394199  0.87071865    -0.22590
C1496       C  0.74361920  0.38461788  0.84957571     0.20300
F1497       F  0.72459021  0.39943540  0.83102504    -0.12550
F1498       F  0.78442831  0.40849516  0.82494258    -0.14910
F1499       F  0.74320866  0.32995726  0.91108710    -0.14910
F1500       F  0.80293834  0.33449363  0.90112356    -0.12550
C1501       C  0.90215756  0.08525520  0.61696497     0.25460
C1502       C  0.90088850  0.10923466  0.63750400    -0.22650
C1503       C  0.92196504  0.11037107  0.66096529     0.20370
C1504       C  0.94417534  0.08812135  0.66351827     0.25400
C1505       C  0.94595642  0.06463504  0.64237025    -0.22590
C1506       C  0.92453739  0.06330196  0.61925438     0.20300
F1507       F  0.92499175  0.04042472  0.59901767    -0.12550
F1508       F  0.88210389  0.08348014  0.59415963    -0.14910
F1509       F  0.96444357  0.09005281  0.68612221    -0.14910
F1510       F  0.92082245  0.13283912  0.68162382    -0.12550
C1511       C  0.89273811  0.26584587  0.62100663     0.25460
C1512       C  0.87686295  0.28062573  0.64420327    -0.22650
C1513       C  0.85772281  0.26372078  0.66282657     0.20370
C1514       C  0.85527244  0.23283448  0.65914758     0.25400
C1515       C  0.87048257  0.21805085  0.63571191    -0.22590
C1516       C  0.88942522  0.23468196  0.61669696     0.20300
F1517       F  0.90412538  0.22091416  0.59372360    -0.12550
F1518       F  0.91167456  0.28142168  0.60286624    -0.14910
F1519       F  0.83772833  0.21723625  0.67860725    -0.14910
F1520       F  0.84079162  0.27718612  0.68445834    -0.12550
C1521       C  0.77644452  0.12074904  0.61828298     0.25460
C1522       C  0.79255649  0.14129400  0.63602610    -0.22650
C1523       C  0.77720170  0.15779829  0.65827444     0.20370
C1524       C  0.74632683  0.15485157  0.66198982     0.25400
C1525       C  0.73000529  0.13439243  0.64437298    -0.22590
C1526       C  0.74529764  0.11728555  0.62245000     0.20300
F1527       F  0.73018700  0.09702329  0.60541020    -0.12550
F1528       F  0.79069200  0.10462632  0.59658452    -0.14910
F1529       F  0.73225774  0.17258363  0.68257366    -0.14910
F1530       F  0.79219051  0.17694438  0.67663860    -0.12550
C1531       C  0.62648758  0.07162408  0.91948091     0.25460
C1532       C  0.65403358  0.06543988  0.93387690    -0.22650
C1533       C  0.67957507  0.08250967  0.92587924     0.20370
C1534       C  0.67747375  0.10514168  0.90414884     0.25400
C1535       C  0.64998653  0.11088924  0.88987523    -0.22590
C1536       C  0.62460845  0.09398959  0.89768258     0.20300
F1537       F  0.59783288  0.09927137  0.88415344    -0.12550
F1538       F  0.60124405  0.05577028  0.92606173    -0.14910
F1539       F  0.70243249  0.12097416  0.89649168    -0.14910
F1540       F  0.70655401  0.07749452  0.93909514    -0.12550
C1541       C  0.67662532  0.26515342  0.83940149     0.25460
C1542       C  0.65935394  0.28082709  0.86085154    -0.22650
C1543       C  0.63890332  0.26477774  0.87884397     0.20370
C1544       C  0.63598042  0.23351949  0.87551274     0.25400
C1545       C  0.65348366  0.21794508  0.85415549    -0.22590
C1546       C  0.67400273  0.23409146  0.83636440     0.20300
F1547       F  0.69180724  0.21969081  0.81607921    -0.12550
F1548       F  0.69598401  0.28003037  0.82106914    -0.14910
F1549       F  0.61562256  0.21858710  0.89264600    -0.14910
F1550       F  0.62225320  0.27924452  0.90000538    -0.12550
C1551       C  0.65869040  0.11223061  0.76983487     0.25460
C1552       C  0.63942002  0.13487181  0.78082208    -0.22650
C1553       C  0.62160651  0.15096943  0.76032861     0.20370
C1554       C  0.62562190  0.14710579  0.72945425     0.25400
C1555       C  0.64674663  0.12617954  0.71843671    -0.22590
C1556       C  0.66182564  0.10754274  0.73899434     0.20300
F1557       F  0.68100476  0.08581680  0.72920258    -0.12550
F1558       F  0.67647174  0.09628998  0.78868687    -0.14910
F1559       F  0.61063376  0.16565537  0.71056359    -0.14910
F1560       F  0.60142094  0.17172889  0.77018946    -0.12550
loop_ 
_geom_bond_atom_site_label_1 
_geom_bond_atom_site_label_2 
_geom_bond_distance 
_geom_bond_site_symmetry_2 
_ccdc_geom_bond_type 
C1            C2   1.405       .  A
C1            C6   1.405       .  A
C1         C1535   1.476       .  S
C2            C3   1.403       .  A
C2            H7   1.084       .  S
C3            C4   1.402       .  A
C3         C1552   1.487       .  S
C4            C5   1.401       .  A
C4            H8   1.083       .  S
C5            C6   1.405       .  A
C5         C1545   1.482       .  S
C6            H9   1.083       .  S
C10          C11   1.411       .  A
C10          C15   1.411       .  A
C10        C1502   1.484       .  S
C11          C12   1.404       .  A
C11          H16   1.084       .  S
C12          C13   1.397       .  A
C12        C1522   1.481       .  S
C13          C14   1.397       .  A
C13          H17   1.085       .  S
C14          C15   1.403       .  A
C14        C1515   1.478       .  S
C15          H18   1.083       .  S
C19          C20   1.404       .  A
C19          C24   1.404       .  A
C19        C1472   1.480       .  S
C20          C21   1.404       .  A
C20          H25   1.083       .  S
C21          C22   1.404       .  A
C21        C1492   1.488       .  S
C22          C23   1.404       .  A
C22          H26   1.083       .  S
C23          C24   1.403       .  A
C23        C1482   1.488       .  S
C24          H27   1.083       .  S
C28          C29   1.407       .  A
C28          C33   1.405       .  A
C28        C1462   1.477       .  S
C29          C30   1.405       .  A
C29          H34   1.084       .  S
C30          C31   1.399       .  A
C30        C1542   1.482       .  S
C31          C32   1.400       .  A
C31          H35   1.084       .  S
C32          C33   1.404       .  A
C32        C1495   1.484       .  S
C33          H36   1.083       .  S
C37          C38   1.408       .  A
C37          C42   1.407       .  A
C37        C1452   1.481       .  S
C38          C39   1.405       .  A
C38          H43   1.083       .  S
C39          C40   1.402       .  A
C39        C1512   1.485       .  S
C40          C41   1.399       .  A
C40          H44   1.083       .  S
C41          C42   1.402       .  A
C41        C1485   1.487       .  S
C42          H45   1.084       .  S
C46          C47   1.404       .  A
C46          C51   1.404       .  A
C46        C1442   1.473       .  S
C47          C48   1.404       .  A
C47          H52   1.084       .  S
C48          C49   1.403       .  A
C48        C1555   1.488       .  S
C49          C50   1.402       .  A
C49          H53   1.083       .  S
C50          C51   1.402       .  A
C50        C1525   1.482       .  S
C51          H54   1.084       .  S
C55          C56   1.404       .  A
C55          C60   1.405       .  A
C55        C1412   1.474       .  S
C56          C57   1.404       .  A
C56          H61   1.084       .  S
C57          C58   1.403       .  A
C57        C1432   1.488       .  S
C58          C59   1.402       .  A
C58          H62   1.083       .  S
C59          C60   1.405       .  A
C59        C1422   1.486       .  S
C60          H63   1.083       .  S
C64          C65   1.409       .  A
C64          C69   1.408       .  A
C64        C1382   1.480       .  S
C65          C66   1.406       .  A
C65          H70   1.083       .  S
C66          C67   1.401       .  A
C66        C1402   1.491       .  S
C67          C68   1.397       .  A
C67          H71   1.084       .  S
C68          C69   1.403       .  A
C68        C1395   1.478       .  S
C69          H72   1.084       .  S
C73          C74   1.405       .  A
C73          C78   1.404       .  A
C73        C1352   1.475       .  S
C74          C75   1.404       .  A
C74          H79   1.084       .  S
C75          C76   1.401       .  A
C75        C1372   1.481       .  S
C76          C77   1.402       .  A
C76          H80   1.084       .  S
C77          C78   1.403       .  A
C77        C1362   1.485       .  S
C78          H81   1.083       .  S
C82          C83   1.409       .  A
C82          C87   1.407       .  A
C82        C1342   1.483       .  S
C83          C84   1.405       .  A
C83          H88   1.083       .  S
C84          C85   1.400       .  A
C84        C1425   1.481       .  S
C85          C86   1.400       .  A
C85          H89   1.084       .  S
C86          C87   1.402       .  A
C86        C1365   1.484       .  S
C87          H90   1.083       .  S
C91          C92   1.412       .  A
C91          C96   1.410       .  A
C91        C1332   1.487       .  S
C92          C93   1.406       .  A
C92          H97   1.084       .  S
C93          C94   1.398       .  A
C93        C1375   1.485       .  S
C94          C95   1.397       .  A
C94          H98   1.085       .  S
C95          C96   1.400       .  A
C95        C1405   1.475       .  S
C96          H99   1.083       .  S
C100        C101   1.407       .  A
C100        C105   1.409       .  A
C100       C1322   1.485       .  S
C101        C102   1.403       .  A
C101        H106   1.083       .  S
C102        C103   1.402       .  A
C102       C1435   1.489       .  S
C103        C104   1.403       .  A
C103        H107   1.082       .  S
C104        C105   1.407       .  A
C104       C1392   1.489       .  S
C105        H108   1.083       .  S
C109        C110   1.409       .  A
C109        C114   1.406       .  A
C109       C1292   1.483       .  S
C110        C111   1.407       .  A
C110        H115   1.083       .  S
C111        C112   1.402       .  A
C111       C1312   1.487       .  S
C112        C113   1.401       .  A
C112        H116   1.083       .  S
C113        C114   1.401       .  A
C113       C1302   1.486       .  S
C114        H117   1.083       .  S
C118        C119   1.408       .  A
C118        C123   1.407       .  A
C118       C1262   1.484       .  S
C119        C120   1.404       .  A
C119        H124   1.084       .  S
C120        C121   1.400       .  A
C120       C1282   1.481       .  S
C121        C122   1.402       .  A
C121        H125   1.084       .  S
C122        C123   1.404       .  A
C122       C1272   1.486       .  S
C123        H126   1.083       .  S
C127        C128   1.404       .  A
C127        C132   1.405       .  A
C127       C1235   1.472       .  S
C128        C129   1.403       .  A
C128        H133   1.084       .  S
C129        C130   1.402       .  A
C129       C1252   1.483       .  S
C130        C131   1.400       .  A
C130        H134   1.084       .  S
C131        C132   1.403       .  A
C131       C1242   1.480       .  S
C132        H135   1.083       .  S
C136        C137   1.405       .  A
C136        C141   1.406       .  A
C136       C1222   1.482       .  S
C137        C138   1.403       .  A
C137        H142   1.083       .  S
C138        C139   1.403       .  A
C138       C1305   1.486       .  S
C139        C140   1.402       .  A
C139        H143   1.082       .  S
C140        C141   1.405       .  A
C140       C1245   1.487       .  S
C141        H144   1.083       .  S
C145        C146   1.406       .  A
C145        C150   1.403       .  A
C145       C1215   1.478       .  S
C146        C147   1.406       .  A
C146        H151   1.083       .  S
C147        C148   1.403       .  A
C147       C1285   1.486       .  S
C148        C149   1.403       .  A
C148        H152   1.083       .  S
C149        C150   1.402       .  A
C149       C1255   1.485       .  S
C150        H153   1.084       .  S
C154        C155   1.411       .  A
C154        C159   1.408       .  A
C154       C1202   1.487       .  S
C155        C156   1.406       .  A
C155        H160   1.083       .  S
C156        C157   1.400       .  A
C156       C1315   1.484       .  S
C157        C158   1.400       .  A
C157        H161   1.084       .  S
C158        C159   1.402       .  A
C158       C1275   1.484       .  S
C159        H162   1.083       .  S
C163        C164   1.407       .  A
C163        C168   1.408       .  A
C163       C1172   1.477       .  S
C164        C165   1.401       .  A
C164        H169   1.084       .  S
C165        C166   1.400       .  A
C165       C1192   1.480       .  S
C166        C167   1.401       .  A
C166        H170   1.085       .  S
C167        C168   1.405       .  A
C167       C1182   1.484       .  S
C168        H171   1.083       .  S
C172        C173   1.408       .  A
C172        C177   1.408       .  A
C172       C1142   1.480       .  S
C173        C174   1.402       .  A
C173        H178   1.083       .  S
C174        C175   1.401       .  A
C174       C1162   1.485       .  S
C175        C176   1.403       .  A
C175        H179   1.084       .  S
C176        C177   1.406       .  A
C176       C1152   1.490       .  S
C177        H180   1.083       .  S
C181        C182   1.411       .  A
C181        C186   1.411       .  A
C181       C1112   1.486       .  S
C182        C183   1.405       .  A
C182        H187   1.084       .  S
C183        C184   1.401       .  A
C183       C1132   1.489       .  S
C184        C185   1.399       .  A
C184        H188   1.084       .  S
C185        C186   1.402       .  A
C185       C1122   1.483       .  S
C186        H189   1.083       .  S
C190        C191   1.410       .  A
C190        C195   1.409       .  A
C190       C1102   1.483       .  S
C191        C192   1.404       .  A
C191        H196   1.083       .  S
C192        C193   1.400       .  A
C192       C1185   1.485       .  S
C193        C194   1.401       .  A
C193        H197   1.085       .  S
C194        C195   1.403       .  A
C194       C1135   1.483       .  S
C195        H198   1.084       .  S
C199        C200   1.409       .  A
C199        C204   1.408       .  A
C199       C1092   1.482       .  S
C200        C201   1.405       .  A
C200        H205   1.083       .  S
C201        C202   1.403       .  A
C201       C1125   1.488       .  S
C202        C203   1.400       .  A
C202        H206   1.084       .  S
C203        C204   1.401       .  A
C203       C1165   1.480       .  S
C204        H207   1.084       .  S
C208        C209   1.410       .  A
C208        C213   1.408       .  A
C208       C1082   1.481       .  S
C209        C210   1.406       .  A
C209        H214   1.083       .  S
C210        C211   1.401       .  A
C210       C1195   1.488       .  S
C211        C212   1.398       .  A
C211        H215   1.084       .  S
C212        C213   1.401       .  A
C212       C1155   1.477       .  S
C213        H216   1.084       .  S
C217        C218   1.412       .  A
C217        C222   1.411       .  A
C217       C1055   1.491       .  S
C218        C219   1.406       .  A
C218        H223   1.077       .  S
C219        C220   1.400       .  A
C219       C1072   1.488       .  S
C220        C221   1.400       .  A
C220        H224   1.085       .  S
C221        C222   1.402       .  A
C221       C1062   1.483       .  S
C222        H225   1.087       .  S
C226        C227   1.410       .  A
C226        C231   1.408       .  A
C226       C1025   1.489       .  S
C227        C228   1.407       .  A
C227        H232   1.083       .  S
C228        C229   1.402       .  A
C228       C1042   1.488       .  S
C229        C230   1.402       .  A
C229        H233   1.083       .  S
C230        C231   1.403       .  A
C230       C1035   1.489       .  S
C231        H234   1.083       .  S
C235        C236   1.411       .  A
C235        C240   1.412       .  A
C235        C995   1.486       .  S
C236        C237   1.404       .  A
C236        H241   1.083       .  S
C237        C238   1.399       .  A
C237       C1012   1.482       .  S
C238        C239   1.396       .  A
C238        H242   1.085       .  S
C239        C240   1.403       .  A
C239       C1002   1.480       .  S
C240        H243   1.084       .  S
C244        C245   1.413       .  A
C244        C249   1.410       .  A
C244        C982   1.490       .  S
C245        C246   1.408       .  A
C245        H250   1.082       .  S
C246        C247   1.401       .  A
C246       C1065   1.491       .  S
C247        C248   1.398       .  A
C247        H251   1.084       .  S
C248        C249   1.400       .  A
C248       C1015   1.480       .  S
C249        H252   1.084       .  S
C253        C254   1.407       .  A
C253        C258   1.408       .  A
C253        C972   1.484       .  S
C254        C255   1.405       .  A
C254        H259   1.083       .  S
C255        C256   1.403       .  A
C255       C1032   1.490       .  S
C256        C257   1.402       .  A
C256        H260   1.082       .  S
C257        C258   1.405       .  A
C257       C1005   1.489       .  S
C258        H261   1.084       .  S
C262        C263   1.406       .  A
C262        C267   1.408       .  A
C262        C962   1.485       .  S
C263        C264   1.403       .  A
C263        H268   1.084       .  S
C264        C265   1.401       .  A
C264       C1075   1.487       .  S
C265        C266   1.403       .  A
C265        H269   1.084       .  S
C266        C267   1.407       .  A
C266       C1045   1.484       .  S
C267        H270   1.083       .  S
C271        C272   1.403       .  A
C271        C276   1.404       .  A
C271        C935   1.478       .  S
C272        C273   1.404       .  A
C272        H277   1.083       .  S
C273        C274   1.404       .  A
C273        C952   1.489       .  S
C274        C275   1.404       .  A
C274        H278   1.083       .  S
C275        C276   1.404       .  A
C275        C942   1.489       .  S
C276        H279   1.083       .  S
C280        C281   1.408       .  A
C280        C285   1.408       .  A
C280        C902   1.474       .  S
C281        C282   1.402       .  A
C281        H286   1.084       .  S
C282        C283   1.397       .  A
C282        C922   1.476       .  S
C283        C284   1.398       .  A
C283        H287   1.085       .  S
C284        C285   1.404       .  A
C284        C912   1.481       .  S
C285        H288   1.083       .  S
C289        C290   1.409       .  A
C289        C294   1.407       .  A
C289        C872   1.483       .  S
C290        C291   1.405       .  A
C290        H295   1.083       .  S
C291        C292   1.400       .  A
C291        C895   1.483       .  S
C292        C293   1.400       .  A
C292        H296   1.084       .  S
C293        C294   1.402       .  A
C293        C882   1.485       .  S
C294        H297   1.084       .  S
C298        C299   1.408       .  A
C298        C303   1.408       .  A
C298        C862   1.486       .  S
C299        C300   1.404       .  A
C299        H304   1.083       .  S
C300        C301   1.401       .  A
C300        C955   1.488       .  S
C301        C302   1.401       .  A
C301        H305   1.083       .  S
C302        C303   1.406       .  A
C302        C892   1.486       .  S
C303        H306   1.083       .  S
C307        C308   1.405       .  A
C307        C312   1.402       .  A
C307        C852   1.477       .  S
C308        C309   1.408       .  A
C308        H313   1.083       .  S
C309        C310   1.406       .  A
C309        C925   1.489       .  S
C310        C311   1.402       .  A
C310        H314   1.082       .  S
C311        C312   1.399       .  A
C311        C885   1.485       .  S
C312        H315   1.084       .  S
C316        C317   1.405       .  A
C316        C321   1.404       .  A
C316        C842   1.473       .  S
C317        C318   1.406       .  A
C317        H322   1.084       .  S
C318        C319   1.401       .  A
C318        C945   1.487       .  S
C319        C320   1.401       .  A
C319        H323   1.084       .  S
C320        C321   1.402       .  A
C320        C915   1.481       .  S
C321        H324   1.083       .  S
C325        C326   1.409       .  A
C325        C330   1.411       .  A
C325        C812   1.484       .  S
C326        C327   1.402       .  A
C326        H331   1.083       .  S
C327        C328   1.398       .  A
C327        C832   1.479       .  S
C328        C329   1.400       .  A
C328        H332   1.085       .  S
C329        C330   1.406       .  A
C329        C822   1.489       .  S
C330        H333   1.083       .  S
C334        C335   1.407       .  A
C334        C339   1.407       .  A
C334        C785   1.481       .  S
C335        C336   1.405       .  A
C335        H340   1.083       .  S
C336        C337   1.402       .  A
C336        C802   1.489       .  S
C337        C338   1.401       .  A
C337        H341   1.083       .  S
C338        C339   1.403       .  A
C338        C792   1.482       .  S
C339        H342   1.084       .  S
C343        C344   1.404       .  A
C343        C348   1.406       .  A
C343        C755   1.482       .  S
C344        C345   1.404       .  A
C344        H349   1.083       .  S
C345        C346   1.404       .  A
C345        C775   1.489       .  S
C346        C347   1.404       .  A
C346        H350   1.083       .  S
C347        C348   1.406       .  A
C347        C762   1.489       .  S
C348        H351   1.083       .  S
C352        C353   1.406       .  A
C352        C357   1.406       .  A
C352        C742   1.477       .  S
C353        C354   1.403       .  A
C353        H358   1.083       .  S
C354        C355   1.401       .  A
C354        C835   1.484       .  S
C355        C356   1.402       .  A
C355        H359   1.083       .  S
C356        C357   1.405       .  A
C356        C772   1.488       .  S
C357        H360   1.083       .  S
C361        C362   1.407       .  A
C361        C366   1.407       .  A
C361        C732   1.485       .  S
C362        C363   1.406       .  A
C362        H367   1.083       .  S
C363        C364   1.403       .  A
C363        C765   1.490       .  S
C364        C365   1.402       .  A
C364        H368   1.084       .  S
C365        C366   1.404       .  A
C365        C805   1.488       .  S
C366        H369   1.083       .  S
C370        C371   1.408       .  A
C370        C375   1.409       .  A
C370        C722   1.479       .  S
C371        C372   1.401       .  A
C371        H376   1.084       .  S
C372        C373   1.399       .  A
C372        C825   1.477       .  S
C373        C374   1.399       .  A
C373        H377   1.085       .  S
C374        C375   1.405       .  A
C374        C795   1.485       .  S
C375        H378   1.083       .  S
C379        C380   1.404       .  A
C379        C384   1.404       .  A
C379        C692   1.478       .  S
C380        C381   1.405       .  A
C380        H385   1.083       .  S
C381        C382   1.402       .  A
C381        C715   1.486       .  S
C382        C383   1.401       .  A
C382        H386   1.083       .  S
C383        C384   1.403       .  A
C383        C702   1.485       .  S
C384        H387   1.084       .  S
C388        C389   1.405       .  A
C388        C393   1.405       .  A
C388        C662   1.479       .  S
C389        C390   1.404       .  A
C389        H394   1.083       .  S
C390        C391   1.402       .  A
C390        C682   1.487       .  S
C391        C392   1.403       .  A
C391        H395   1.083       .  S
C392        C393   1.406       .  A
C392        C672   1.488       .  S
C393        H396   1.083       .  S
C397        C398   1.406       .  A
C397        C402   1.406       .  A
C397        C632   1.482       .  S
C398        C399   1.404       .  A
C398        H403   1.083       .  S
C399        C400   1.401       .  A
C399        C652   1.487       .  S
C400        C401   1.401       .  A
C400        H404   1.083       .  S
C401        C402   1.406       .  A
C401        C645   1.487       .  S
C402        H405   1.083       .  S
C406        C407   1.408       .  A
C406        C411   1.408       .  A
C406        C622   1.486       .  S
C407        C408   1.405       .  A
C407        H412   1.083       .  S
C408        C409   1.401       .  A
C408        C685   1.487       .  S
C409        C410   1.400       .  A
C409        H413   1.083       .  S
C410        C411   1.404       .  A
C410        C642   1.487       .  S
C411        H414   1.083       .  S
C415        C416   1.403       .  A
C415        C420   1.404       .  A
C415        C612   1.472       .  S
C416        C417   1.403       .  A
C416        H421   1.083       .  S
C417        C418   1.401       .  A
C417        C705   1.485       .  S
C418        C419   1.402       .  A
C418        H422   1.084       .  S
C419        C420   1.405       .  A
C419        C655   1.486       .  S
C420        H423   1.083       .  S
C424        C425   1.406       .  A
C424        C429   1.407       .  A
C424        C602   1.482       .  S
C425        C426   1.404       .  A
C425        H430   1.083       .  S
C426        C427   1.401       .  A
C426        C712   1.486       .  S
C427        C428   1.401       .  A
C427        H431   1.083       .  S
C428        C429   1.406       .  A
C428        C675   1.487       .  S
C429        H432   1.083       .  S
O433       Cu441   2.021       .  S
O433        C443   1.279       .  A
O434       Cu441   2.029       .  S
O434        C444   1.280       .  A
O435       Cu441   2.029       .  S
O435        C445   1.280       .  A
O436       Cu441   2.020       .  S
O436        C446   1.279       .  A
O437       Cu442   2.000       .  S
O437        C446   1.277       .  A
O438       Cu442   1.994       .  S
O438        C445   1.276       .  A
O439       Cu442   1.992       .  S
O439        C444   1.276       .  A
O440       Cu442   1.999       .  S
O440        C443   1.277       .  A
Cu441      Cu442   2.371       .  S
C443        C605   1.480       .  S
C444        C865   1.481       .  S
C445        C985   1.478       .  S
C446        C745   1.482       .  S
O447       Cu455   1.998       .  S
O447        C457   1.277       .  A
O448       Cu455   1.998       .  S
O448        C458   1.277       .  A
O449       Cu455   1.997       .  S
O449        C459   1.277       .  A
O450       Cu455   1.992       .  S
O450        C460   1.276       .  A
O451       Cu456   2.033       .  S
O451        C460   1.281       .  A
O452       Cu456   2.030       .  S
O452        C459   1.280       .  A
O453       Cu456   2.018       .  S
O453        C458   1.279       .  A
O454       Cu456   2.018       .  S
O454        C457   1.279       .  A
Cu455      Cu456   2.368       .  S
C457       C1212   1.478       .  S
C458        C615   1.486       .  S
C459       C1325   1.485       .  S
C460        C965   1.484       .  S
O461       Cu469   1.999       .  S
O461        C471   1.277       .  A
O462       Cu469   2.002       .  S
O462        C472   1.277       .  A
O463       Cu469   1.989       .  S
O463        C473   1.276       .  A
O464       Cu469   2.000       .  S
O464        C474   1.277       .  A
O465       Cu470   2.019       .  S
O465        C474   1.279       .  A
O466       Cu470   2.027       .  S
O466        C473   1.280       .  A
O467       Cu470   2.019       .  S
O467        C472   1.279       .  A
O468       Cu470   2.025       .  S
O468        C471   1.280       .  A
Cu469      Cu470   2.372       .  S
C471       C1335   1.479       .  S
C472        C735   1.478       .  S
C473       C1445   1.484       .  S
C474        C625   1.478       .  S
O475       Cu483   2.028       .  S
O475        C485   1.280       .  A
O476       Cu483   2.028       .  S
O476        C486   1.280       .  A
O477       Cu483   2.024       .  S
O477        C487   1.280       .  A
O478       Cu483   2.025       .  S
O478        C488   1.280       .  A
O479       Cu484   1.987       .  S
O479        C488   1.276       .  A
O480       Cu484   1.990       .  S
O480        C487   1.276       .  A
O481       Cu484   1.997       .  S
O481        C486   1.277       .  A
O482       Cu484   1.996       .  S
O482        C485   1.276       .  A
Cu483      Cu484   2.369       .  S
C485       C1105   1.482       .  S
C486        C725   1.486       .  S
C487       C1455   1.480       .  S
C488        C855   1.481       .  S
O489       Cu497   2.025       .  S
O489        C499   1.280       .  A
O490       Cu497   2.030       .  S
O490        C500   1.281       .  A
O491       Cu497   2.023       .  S
O491        C501   1.279       .  A
O492       Cu497   2.028       .  S
O492        C502   1.280       .  A
O493       Cu498   1.998       .  S
O493        C502   1.276       .  A
O494       Cu498   1.999       .  S
O494        C501   1.277       .  A
O495       Cu498   1.989       .  S
O495        C500   1.275       .  A
O496       Cu498   1.999       .  S
O496        C499   1.277       .  A
Cu497      Cu498   2.369       .  S
C499       C1205   1.483       .  S
C500        C845   1.488       .  S
C501       C1085   1.482       .  S
C502        C975   1.479       .  S
O503       Cu511   1.996       .  S
O503        C513   1.276       .  A
O504       Cu511   1.986       .  S
O504        C514   1.275       .  A
O505       Cu511   2.004       .  S
O505        C515   1.278       .  A
O506       Cu511   2.000       .  S
O506        C516   1.277       .  A
O507       Cu512   2.016       .  S
O507        C516   1.278       .  A
O508       Cu512   2.019       .  S
O508        C515   1.279       .  A
O509       Cu512   2.030       .  S
O509        C514   1.281       .  A
O510       Cu512   2.026       .  S
O510        C513   1.280       .  A
Cu511      Cu512   2.371       .  S
C513       C1095   1.482       .  S
C514       C1345   1.480       .  S
C515       C1465   1.485       .  S
C516       C1225   1.474       .  S
O517       Cu525   2.025       .  S
O517        C527   1.280       .  A
O518       Cu525   2.026   1_645  S
O518        C528   1.280       .  A
O519       Cu525   2.029   1_545  S
O519        C529   1.280       .  A
O520       Cu525   2.023   1_655  S
O520        C530   1.280       .  A
O521       Cu526   2.000   1_655  S
O521        C530   1.277       .  A
O522       Cu526   1.991   1_545  S
O522        C529   1.276       .  A
O523       Cu526   1.994   1_645  S
O523        C528   1.276       .  A
O524       Cu526   1.998       .  S
O524        C527   1.277       .  A
Cu525      Cu526   2.369       .  S
C527       C1022   1.482       .  S
C528        C782   1.479       .  S
C529        C635   1.480       .  S
C530        C905   1.492       .  S
O531       Cu539   2.001   1_645  S
O531        C541   1.277       .  A
O532       Cu539   2.000       .  S
O532        C542   1.276       .  A
O533       Cu539   1.988   1_655  S
O533        C543   1.275       .  A
O534       Cu539   2.001   1_545  S
O534        C544   1.277       .  A
O535       Cu540   2.028       .  S
O535        C544   1.280       .  A
O536       Cu540   2.034   1_665  S
O536        C543   1.281       .  A
O537       Cu540   2.022   1_565  S
O537        C542   1.279       .  A
O538       Cu540   2.024   1_655  S
O538        C541   1.280       .  A
Cu539      Cu540   2.369   1_565  S
C541       C1505   1.481       .  S
C542       C1265   1.476       .  S
C543       C1175   1.486       .  S
C544       C1385   1.490       .  S
O545       Cu553   2.022   1_546  S
O545        C555   1.280       .  A
O546       Cu553   2.031       .  S
O546        C556   1.280       .  A
O547       Cu553   2.027   1_545  S
O547        C557   1.280       .  A
O548       Cu553   2.023   1_556  S
O548        C558   1.279       .  A
O549       Cu554   1.995   1_556  S
O549        C558   1.277       .  A
O550       Cu554   1.992   1_545  S
O550        C557   1.276       .  A
O551       Cu554   1.996       .  S
O551        C556   1.276       .  A
O552       Cu554   1.997   1_546  S
O552        C555   1.277       .  A
Cu553      Cu554   2.369       .  S
C555       C1355   1.488       .  S
C556        C992   1.482       .  S
C557        C665   1.482       .  S
C558       C1295   1.483       .  S
O559       Cu567   2.022       .  S
O559        C569   1.280       .  A
O560       Cu567   2.018   1_656  S
O560        C570   1.279       .  A
O561       Cu567   2.024   1_556  S
O561        C571   1.280       .  A
O562       Cu567   2.023   1_655  S
O562        C572   1.279       .  A
O563       Cu568   2.000   1_655  S
O563        C572   1.277       .  A
O564       Cu568   1.998   1_556  S
O564        C571   1.277       .  A
O565       Cu568   1.993   1_656  S
O565        C570   1.276       .  A
O566       Cu568   1.988       .  S
O566        C569   1.275       .  A
Cu567      Cu568   2.370       .  S
C569        C695   1.478       .  S
C570       C1475   1.475       .  S
C571       C1415   1.489       .  S
C572        C815   1.481       .  S
O573       Cu581   1.994   1_545  S
O573        C583   1.276       .  A
O574       Cu581   1.985   1_554  S
O574        C584   1.275       .  A
O575       Cu581   1.995   1_544  S
O575        C585   1.276       .  A
O576       Cu581   1.999       .  S
O576        C586   1.277       .  A
O577       Cu582   2.024       .  S
O577        C586   1.279       .  A
O578       Cu582   2.021   1_544  S
O578        C585   1.279       .  A
O579       Cu582   2.028   1_554  S
O579        C584   1.281       .  A
O580       Cu582   2.025   1_545  S
O580        C583   1.280       .  A
Cu581      Cu582   2.370       .  S
C583       C1532   1.489       .  S
C584        C932   1.480       .  S
C585        C752   1.477       .  S
C586       C1145   1.484       .  S
O587       Cu595   2.019   1_554  S
O587        C597   1.279       .  A
O588       Cu595   2.012   1_655  S
O588        C598   1.278       .  A
O589       Cu595   2.012       .  S
O589        C599   1.278       .  A
O590       Cu595   2.012   1_654  S
O590        C600   1.278       .  A
O591       Cu596   2.006   1_655  S
O591        C600   1.278       .  A
O592       Cu596   2.005   1_556  S
O592        C599   1.278       .  A
O593       Cu596   2.015   1_656  S
O593        C598   1.279       .  A
O594       Cu596   2.009       .  S
O594        C597   1.278       .  A
Cu595      Cu596   2.369   1_556  S
C597       C1052   1.480       .  S
C598       C1115   1.482       .  S
C599       C1232   1.489       .  S
C600        C875   1.476       .  S
C601        C602   1.408       .  A
C601        C606   1.401       .  A
C601        F608   1.358       .  S
C602        C603   1.405       .  A
C603        C604   1.397       .  A
C603        F610   1.358       .  S
C604        C605   1.408       .  A
C604        F609   1.358       .  S
C605        C606   1.408       .  A
C606        F607   1.358       .  S
C611        C612   1.403       .  A
C611        C616   1.400       .  A
C611        F618   1.358       .  S
C612        C613   1.399       .  A
C613        C614   1.397       .  A
C613        F620   1.358       .  S
C614        C615   1.413       .  A
C614        F619   1.358       .  S
C615        C616   1.411       .  A
C616        F617   1.358       .  S
C621        C622   1.407       .  A
C621        C626   1.398       .  A
C621        F628   1.358       .  S
C622        C623   1.409       .  A
C623        C624   1.401       .  A
C623        F630   1.358       .  S
C624        C625   1.406       .  A
C624        F629   1.358       .  S
C625        C626   1.406       .  A
C626        F627   1.358       .  S
C631        C632   1.404       .  A
C631        C636   1.396       .  A
C631        F638   1.358       .  S
C632        C633   1.408       .  A
C633        C634   1.402       .  A
C633        F640   1.358       .  S
C634        C635   1.407       .  A
C634        F639   1.358       .  S
C635        C636   1.408       .  A
C636        F637   1.358       .  S
C641        C642   1.406       .  A
C641        C646   1.397       .  A
C641        F648   1.358       .  S
C642        C643   1.411       .  A
C643        C644   1.397       .  A
C643        F650   1.358       .  S
C644        C645   1.406       .  A
C644        F649   1.358       .  S
C645        C646   1.411       .  A
C646        F647   1.358       .  S
C651        C652   1.411       .  A
C651        C656   1.397       .  A
C651        F658   1.358       .  S
C652        C653   1.406       .  A
C653        C654   1.397       .  A
C653        F660   1.358       .  S
C654        C655   1.410       .  A
C654        F659   1.358       .  S
C655        C656   1.406       .  A
C656        F657   1.358       .  S
C661        C662   1.402       .  A
C661        C666   1.396       .  A
C661        F668   1.358       .  S
C662        C663   1.407       .  A
C663        C664   1.402       .  A
C663        F670   1.358       .  S
C664        C665   1.408       .  A
C664        F669   1.358       .  S
C665        C666   1.410       .  A
C666        F667   1.358       .  S
C671        C672   1.407       .  A
C671        C676   1.397       .  A
C671        F678   1.358       .  S
C672        C673   1.411       .  A
C673        C674   1.398       .  A
C673        F680   1.358       .  S
C674        C675   1.406       .  A
C674        F679   1.358       .  S
C675        C676   1.410       .  A
C676        F677   1.358       .  S
C681        C682   1.407       .  A
C681        C686   1.397       .  A
C681        F688   1.358       .  S
C682        C683   1.410       .  A
C683        C684   1.398       .  A
C683        F690   1.358       .  S
C684        C685   1.406       .  A
C684        F689   1.358       .  S
C685        C686   1.410       .  A
C686        F687   1.358       .  S
C691        C692   1.403       .  A
C691        C696   1.395       .  A
C691        F698   1.358       .  S
C692        C693   1.407       .  A
C693        C694   1.401       .  A
C693        F700   1.358       .  S
C694        C695   1.407       .  A
C694        F699   1.358       .  S
C695        C696   1.408       .  A
C696        F697   1.358       .  S
C701        C702   1.410       .  A
C701        C706   1.397       .  A
C701        F708   1.358       .  S
C702        C703   1.406       .  A
C703        C704   1.396       .  A
C703        F710   1.358       .  S
C704        C705   1.409       .  A
C704        F709   1.358       .  S
C705        C706   1.406       .  A
C706        F707   1.358       .  S
C711        C712   1.406       .  A
C711        C716   1.397       .  A
C711        F718   1.358       .  S
C712        C713   1.410       .  A
C713        C714   1.397       .  A
C713        F720   1.358       .  S
C714        C715   1.406       .  A
C714        F719   1.358       .  S
C715        C716   1.410       .  A
C716        F717   1.358       .  S
C721        C722   1.406       .  A
C721        C726   1.403       .  A
C721        F728   1.358       .  S
C722        C723   1.401       .  A
C723        C724   1.397       .  A
C723        F730   1.358       .  S
C724        C725   1.411       .  A
C724        F729   1.358       .  S
C725        C726   1.410       .  A
C726        F727   1.358       .  S
C731        C732   1.406       .  A
C731        C736   1.398       .  A
C731        F738   1.358       .  S
C732        C733   1.409       .  A
C733        C734   1.401       .  A
C733        F740   1.358       .  S
C734        C735   1.406       .  A
C734        F739   1.358       .  S
C735        C736   1.407       .  A
C736        F737   1.358       .  S
C741        C742   1.405       .  A
C741        C746   1.401       .  A
C741        F748   1.358       .  S
C742        C743   1.402       .  A
C743        C744   1.397       .  A
C743        F750   1.358       .  S
C744        C745   1.410       .  A
C744        F749   1.358       .  S
C745        C746   1.409       .  A
C746        F747   1.358       .  S
C751        C752   1.408       .  A
C751        C756   1.397       .  A
C751        F758   1.358       .  S
C752        C753   1.405       .  A
C753        C754   1.400       .  A
C753        F760   1.358       .  S
C754        C755   1.409       .  A
C754        F759   1.358       .  S
C755        C756   1.404       .  A
C756        F757   1.358       .  S
C761        C762   1.410       .  A
C761        C766   1.399       .  A
C761        F768   1.358       .  S
C762        C763   1.407       .  A
C763        C764   1.398       .  A
C763        F770   1.358       .  S
C764        C765   1.411       .  A
C764        F769   1.358       .  S
C765        C766   1.407       .  A
C766        F767   1.358       .  S
C771        C772   1.407       .  A
C771        C776   1.398       .  A
C771        F778   1.358       .  S
C772        C773   1.409       .  A
C773        C774   1.397       .  A
C773        F780   1.358       .  S
C774        C775   1.408       .  A
C774        F779   1.358       .  S
C775        C776   1.410       .  A
C776        F777   1.358       .  S
C781        C782   1.408       .  A
C781        C786   1.397       .  A
C781        F788   1.358       .  S
C782        C783   1.406       .  A
C783        C784   1.402       .  A
C783        F790   1.358       .  S
C784        C785   1.408       .  A
C784        F789   1.358       .  S
C785        C786   1.404       .  A
C786        F787   1.358       .  S
C791        C792   1.408       .  A
C791        C796   1.406       .  A
C791        F798   1.357       .  S
C792        C793   1.404       .  A
C793        C794   1.390       .  A
C793        F800   1.359       .  S
C794        C795   1.408       .  A
C794        F799   1.357       .  S
C795        C796   1.407       .  A
C796        F797   1.357       .  S
C801        C802   1.407       .  A
C801        C806   1.397       .  A
C801        F808   1.358       .  S
C802        C803   1.410       .  A
C803        C804   1.399       .  A
C803        F810   1.358       .  S
C804        C805   1.407       .  A
C804        F809   1.358       .  S
C805        C806   1.409       .  A
C806        F807   1.358       .  S
C811        C812   1.409       .  A
C811        C816   1.403       .  A
C811        F818   1.358       .  S
C812        C813   1.405       .  A
C813        C814   1.397       .  A
C813        F820   1.358       .  S
C814        C815   1.408       .  A
C814        F819   1.358       .  S
C815        C816   1.408       .  A
C816        F817   1.358       .  S
C821        C822   1.411       .  A
C821        C826   1.408       .  A
C821        F828   1.357       .  S
C822        C823   1.409       .  A
C823        C824   1.386       .  A
C823        F830   1.357       .  S
C824        C825   1.401       .  A
C824        F829   1.358       .  S
C825        C826   1.405       .  A
C826        F827   1.357       .  S
C831        C832   1.405       .  A
C831        C836   1.406       .  A
C831        F838   1.357       .  S
C832        C833   1.404       .  A
C833        C834   1.389       .  A
C833        F840   1.357       .  S
C834        C835   1.407       .  A
C834        F839   1.359       .  S
C835        C836   1.410       .  A
C836        F837   1.357       .  S
C841        C842   1.398       .  A
C841        C846   1.396       .  A
C841        F848   1.358       .  S
C842        C843   1.404       .  A
C843        C844   1.403       .  A
C843        F850   1.358       .  S
C844        C845   1.411       .  A
C844        F849   1.358       .  S
C845        C846   1.413       .  A
C846        F847   1.358       .  S
C851        C852   1.402       .  A
C851        C856   1.392       .  A
C851        F858   1.358       .  S
C852        C853   1.406       .  A
C853        C854   1.403       .  A
C853        F860   1.358       .  S
C854        C855   1.410       .  A
C854        F859   1.358       .  S
C855        C856   1.409       .  A
C856        F857   1.358       .  S
C861        C862   1.410       .  A
C861        C866   1.403       .  A
C861        F868   1.358       .  S
C862        C863   1.406       .  A
C863        C864   1.396       .  A
C863        F870   1.358       .  S
C864        C865   1.408       .  A
C864        F869   1.358       .  S
C865        C866   1.407       .  A
C866        F867   1.358       .  S
C871        C872   1.406       .  A
C871        C876   1.401       .  A
C871        F878   1.358       .  S
C872        C873   1.408       .  A
C873        C874   1.397       .  A
C873        F880   1.358       .  S
C874        C875   1.405       .  A
C874        F879   1.358       .  S
C875        C876   1.407       .  A
C876        F877   1.358       .  S
C881        C882   1.408       .  A
C881        C886   1.398       .  A
C881        F888   1.358       .  S
C882        C883   1.408       .  A
C883        C884   1.396       .  A
C883        F890   1.358       .  S
C884        C885   1.408       .  A
C884        F889   1.358       .  S
C885        C886   1.407       .  A
C886        F887   1.358       .  S
C891        C892   1.408       .  A
C891        C896   1.392       .  A
C891        F898   1.358       .  S
C892        C893   1.409       .  A
C893        C894   1.404       .  A
C893        F900   1.357       .  S
C894        C895   1.407       .  A
C894        F899   1.357       .  S
C895        C896   1.406       .  A
C896        F897   1.359       .  S
C901        C902   1.403       .  A
C901        C906   1.402       .  A
C901        F908   1.358       .  S
C902        C903   1.399       .  A
C903        C904   1.398       .  A
C903        F910   1.358       .  S
C904        C905   1.414       .  A
C904        F909   1.358       .  S
C905        C906   1.413       .  A
C906        F907   1.358       .  S
C911        C912   1.406       .  A
C911        C916   1.405       .  A
C911        F918   1.357       .  S
C912        C913   1.407       .  A
C913        C914   1.388       .  A
C913        F920   1.358       .  S
C914        C915   1.405       .  A
C914        F919   1.359       .  S
C915        C916   1.409       .  A
C916        F917   1.357       .  S
C921        C922   1.403       .  A
C921        C926   1.405       .  A
C921        F928   1.357       .  S
C922        C923   1.404       .  A
C923        C924   1.390       .  A
C923        F930   1.358       .  S
C924        C925   1.409       .  A
C924        F929   1.358       .  S
C925        C926   1.413       .  A
C926        F927   1.357       .  S
C931        C932   1.410       .  A
C931        C936   1.395       .  A
C931        F938   1.358       .  S
C932        C933   1.407       .  A
C933        C934   1.401       .  A
C933        F940   1.358       .  S
C934        C935   1.407       .  A
C934        F939   1.358       .  S
C935        C936   1.402       .  A
C936        F937   1.358       .  S
C941        C942   1.410       .  A
C941        C946   1.398       .  A
C941        F948   1.358       .  S
C942        C943   1.408       .  A
C943        C944   1.397       .  A
C943        F950   1.358       .  S
C944        C945   1.409       .  A
C944        F949   1.358       .  S
C945        C946   1.407       .  A
C946        F947   1.358       .  S
C951        C952   1.410       .  A
C951        C956   1.397       .  A
C951        F958   1.358       .  S
C952        C953   1.408       .  A
C953        C954   1.398       .  A
C953        F960   1.357       .  S
C954        C955   1.409       .  A
C954        F959   1.358       .  S
C955        C956   1.407       .  A
C956        F957   1.358       .  S
C961        C962   1.405       .  A
C961        C966   1.396       .  A
C961        F968   1.358       .  S
C962        C963   1.408       .  A
C963        C964   1.404       .  A
C963        F970   1.358       .  S
C964        C965   1.408       .  A
C964        F969   1.358       .  S
C965        C966   1.409       .  A
C966        F967   1.358       .  S
C971        C972   1.405       .  A
C971        C976   1.398       .  A
C971        F978   1.358       .  S
C972        C973   1.409       .  A
C973        C974   1.403       .  A
C973        F980   1.358       .  S
C974        C975   1.406       .  A
C974        F979   1.358       .  S
C975        C976   1.407       .  A
C976        F977   1.358       .  S
C981        C982   1.408       .  A
C981        C986   1.396       .  A
C981        F988   1.358       .  S
C982        C983   1.411       .  A
C983        C984   1.404       .  A
C983        F990   1.358       .  S
C984        C985   1.406       .  A
C984        F989   1.358       .  S
C985        C986   1.405       .  A
C986        F987   1.358       .  S
C991        C992   1.408       .  A
C991        C996   1.398       .  A
C991        F998   1.358       .  S
C992        C993   1.407       .  A
C993        C994   1.404       .  A
C993       F1000   1.358       .  S
C994        C995   1.410       .  A
C994        F999   1.358       .  S
C995        C996   1.405       .  A
C996        F997   1.358       .  S
C1001      C1002   1.404       .  A
C1001      C1006   1.391       .  A
C1001      F1008   1.358       .  S
C1002      C1003   1.404       .  A
C1003      C1004   1.406       .  A
C1003      F1010   1.357       .  S
C1004      C1005   1.411       .  A
C1004      F1009   1.357       .  S
C1005      C1006   1.408       .  A
C1006      F1007   1.358       .  S
C1011      C1012   1.406       .  A
C1011      C1016   1.386       .  A
C1011      F1018   1.358       .  S
C1012      C1013   1.408       .  A
C1013      C1014   1.408       .  A
C1013      F1020   1.357       .  S
C1014      C1015   1.408       .  A
C1014      F1019   1.357       .  S
C1015      C1016   1.403       .  A
C1016      F1017   1.357       .  S
C1021      C1022   1.407       .  A
C1021      C1026   1.396       .  A
C1021      F1028   1.358       .  S
C1022      C1023   1.408       .  A
C1023      C1024   1.404       .  A
C1023      F1030   1.358       .  S
C1024      C1025   1.410       .  A
C1024      F1029   1.358       .  S
C1025      C1026   1.407       .  A
C1026      F1027   1.358       .  S
C1031      C1032   1.408       .  A
C1031      C1036   1.398       .  A
C1031      F1038   1.357       .  S
C1032      C1033   1.410       .  A
C1033      C1034   1.398       .  A
C1033      F1040   1.358       .  S
C1034      C1035   1.408       .  A
C1034      F1039   1.358       .  S
C1035      C1036   1.409       .  A
C1036      F1037   1.358       .  S
C1041      C1042   1.409       .  A
C1041      C1046   1.405       .  A
C1041      F1048   1.357       .  S
C1042      C1043   1.408       .  A
C1043      C1044   1.394       .  A
C1043      F1050   1.358       .  S
C1044      C1045   1.405       .  A
C1044      F1049   1.358       .  S
C1045      C1046   1.407       .  A
C1046      F1047   1.358       .  S
C1051      C1052   1.405       .  A
C1051      C1056   1.399       .  A
C1051      F1058   1.358       .  S
C1052      C1053   1.406       .  A
C1053      C1054   1.402       .  A
C1053      F1060   1.358       .  S
C1054      C1055   1.410       .  A
C1054      F1059   1.358       .  S
C1055      C1056   1.410       .  A
C1056      F1057   1.358       .  S
C1061      C1062   1.403       .  A
C1061      C1066   1.389       .  A
C1061      F1068   1.359       .  S
C1062      C1063   1.408       .  A
C1063      C1064   1.407       .  A
C1063      F1070   1.357       .  S
C1064      C1065   1.410       .  A
C1064      F1069   1.357       .  S
C1065      C1066   1.410       .  A
C1066      F1067   1.356       .  S
C1071      C1072   1.408       .  A
C1071      C1076   1.401       .  A
C1071      F1078   1.358       .  S
C1072      C1073   1.409       .  A
C1073      C1074   1.397       .  A
C1073      F1080   1.358       .  S
C1074      C1075   1.407       .  A
C1074      F1079   1.358       .  S
C1075      C1076   1.409       .  A
C1076      F1077   1.358       .  S
C1081      C1082   1.407       .  A
C1081      C1086   1.403       .  A
C1081      F1088   1.358       .  S
C1082      C1083   1.403       .  A
C1083      C1084   1.397       .  A
C1083      F1090   1.358       .  S
C1084      C1085   1.409       .  A
C1084      F1089   1.358       .  S
C1085      C1086   1.408       .  A
C1086      F1087   1.358       .  S
C1091      C1092   1.408       .  A
C1091      C1096   1.403       .  A
C1091      F1098   1.358       .  S
C1092      C1093   1.403       .  A
C1093      C1094   1.397       .  A
C1093      F1100   1.358       .  S
C1094      C1095   1.409       .  A
C1094      F1099   1.358       .  S
C1095      C1096   1.408       .  A
C1096      F1097   1.358       .  S
C1101      C1102   1.404       .  A
C1101      C1106   1.397       .  A
C1101      F1108   1.358       .  S
C1102      C1103   1.408       .  A
C1103      C1104   1.403       .  A
C1103      F1110   1.358       .  S
C1104      C1105   1.407       .  A
C1104      F1109   1.358       .  S
C1105      C1106   1.409       .  A
C1106      F1107   1.358       .  S
C1111      C1112   1.406       .  A
C1111      C1116   1.400       .  A
C1111      F1118   1.358       .  S
C1112      C1113   1.408       .  A
C1113      C1114   1.401       .  A
C1113      F1120   1.358       .  S
C1114      C1115   1.407       .  A
C1114      F1119   1.358       .  S
C1115      C1116   1.407       .  A
C1116      F1117   1.358       .  S
C1121      C1122   1.407       .  A
C1121      C1126   1.408       .  A
C1121      F1128   1.357       .  S
C1122      C1123   1.404       .  A
C1123      C1124   1.387       .  A
C1123      F1130   1.357       .  S
C1124      C1125   1.407       .  A
C1124      F1129   1.357       .  S
C1125      C1126   1.411       .  A
C1126      F1127   1.357       .  S
C1131      C1132   1.410       .  A
C1131      C1136   1.408       .  A
C1131      F1138   1.357       .  S
C1132      C1133   1.408       .  A
C1133      C1134   1.388       .  A
C1133      F1140   1.356       .  S
C1134      C1135   1.404       .  A
C1134      F1139   1.358       .  S
C1135      C1136   1.408       .  A
C1136      F1137   1.357       .  S
C1141      C1142   1.407       .  A
C1141      C1146   1.404       .  A
C1141      F1148   1.358       .  S
C1142      C1143   1.402       .  A
C1143      C1144   1.396       .  A
C1143      F1150   1.358       .  S
C1144      C1145   1.409       .  A
C1144      F1149   1.358       .  S
C1145      C1146   1.410       .  A
C1146      F1147   1.358       .  S
C1151      C1152   1.409       .  A
C1151      C1156   1.388       .  A
C1151      F1158   1.357       .  S
C1152      C1153   1.412       .  A
C1153      C1154   1.408       .  A
C1153      F1160   1.357       .  S
C1154      C1155   1.405       .  A
C1154      F1159   1.357       .  S
C1155      C1156   1.401       .  A
C1156      F1157   1.358       .  S
C1161      C1162   1.409       .  A
C1161      C1166   1.408       .  A
C1161      F1168   1.357       .  S
C1162      C1163   1.407       .  A
C1163      C1164   1.388       .  A
C1163      F1170   1.357       .  S
C1164      C1165   1.403       .  A
C1164      F1169   1.357       .  S
C1165      C1166   1.407       .  A
C1166      F1167   1.357       .  S
C1171      C1172   1.400       .  A
C1171      C1176   1.396       .  A
C1171      F1178   1.358       .  S
C1172      C1173   1.406       .  A
C1173      C1174   1.404       .  A
C1173      F1180   1.358       .  S
C1174      C1175   1.410       .  A
C1174      F1179   1.358       .  S
C1175      C1176   1.412       .  A
C1176      F1177   1.358       .  S
C1181      C1182   1.406       .  A
C1181      C1186   1.389       .  A
C1181      F1188   1.358       .  S
C1182      C1183   1.408       .  A
C1183      C1184   1.407       .  A
C1183      F1190   1.357       .  S
C1184      C1185   1.408       .  A
C1184      F1189   1.357       .  S
C1185      C1186   1.406       .  A
C1186      F1187   1.357       .  S
C1191      C1192   1.407       .  A
C1191      C1196   1.407       .  A
C1191      F1198   1.357       .  S
C1192      C1193   1.402       .  A
C1193      C1194   1.387       .  A
C1193      F1200   1.358       .  S
C1194      C1195   1.409       .  A
C1194      F1199   1.357       .  S
C1195      C1196   1.410       .  A
C1196      F1197   1.357       .  S
C1201      C1202   1.409       .  A
C1201      C1206   1.403       .  A
C1201      F1208   1.358       .  S
C1202      C1203   1.406       .  A
C1203      C1204   1.396       .  A
C1203      F1210   1.358       .  S
C1204      C1205   1.408       .  A
C1204      F1209   1.358       .  S
C1205      C1206   1.408       .  A
C1206      F1207   1.358       .  S
C1211      C1212   1.407       .  A
C1211      C1216   1.400       .  A
C1211      F1218   1.358       .  S
C1212      C1213   1.408       .  A
C1213      C1214   1.397       .  A
C1213      F1220   1.358       .  S
C1214      C1215   1.403       .  A
C1214      F1219   1.358       .  S
C1215      C1216   1.407       .  A
C1216      F1217   1.358       .  S
C1221      C1222   1.405       .  A
C1221      C1226   1.397       .  A
C1221      F1228   1.358       .  S
C1222      C1223   1.409       .  A
C1223      C1224   1.400       .  A
C1223      F1230   1.358       .  S
C1224      C1225   1.405       .  A
C1224      F1229   1.358       .  S
C1225      C1226   1.406       .  A
C1226      F1227   1.358       .  S
C1231      C1232   1.413       .  A
C1231      C1236   1.400       .  A
C1231      F1238   1.357       .  S
C1232      C1233   1.413       .  A
C1233      C1234   1.398       .  A
C1233      F1240   1.358       .  S
C1234      C1235   1.401       .  A
C1234      F1239   1.358       .  S
C1235      C1236   1.400       .  A
C1236      F1237   1.358       .  S
C1241      C1242   1.405       .  A
C1241      C1246   1.402       .  A
C1241      F1248   1.358       .  S
C1242      C1243   1.405       .  A
C1243      C1244   1.394       .  A
C1243      F1250   1.359       .  S
C1244      C1245   1.409       .  A
C1244      F1249   1.358       .  S
C1245      C1246   1.409       .  A
C1246      F1247   1.358       .  S
C1251      C1252   1.407       .  A
C1251      C1256   1.396       .  A
C1251      F1258   1.358       .  S
C1252      C1253   1.407       .  A
C1253      C1254   1.398       .  A
C1253      F1260   1.358       .  S
C1254      C1255   1.408       .  A
C1254      F1259   1.358       .  S
C1255      C1256   1.408       .  A
C1256      F1257   1.358       .  S
C1261      C1262   1.406       .  A
C1261      C1266   1.399       .  A
C1261      F1268   1.358       .  S
C1262      C1263   1.410       .  A
C1263      C1264   1.401       .  A
C1263      F1270   1.358       .  S
C1264      C1265   1.404       .  A
C1264      F1269   1.358       .  S
C1265      C1266   1.406       .  A
C1266      F1267   1.358       .  S
C1271      C1272   1.408       .  A
C1271      C1276   1.397       .  A
C1271      F1278   1.358       .  S
C1272      C1273   1.409       .  A
C1273      C1274   1.398       .  A
C1273      F1280   1.358       .  S
C1274      C1275   1.407       .  A
C1274      F1279   1.358       .  S
C1275      C1276   1.408       .  A
C1276      F1277   1.358       .  S
C1281      C1282   1.405       .  A
C1281      C1286   1.394       .  A
C1281      F1288   1.358       .  S
C1282      C1283   1.406       .  A
C1283      C1284   1.403       .  A
C1283      F1290   1.358       .  S
C1284      C1285   1.409       .  A
C1284      F1289   1.358       .  S
C1285      C1286   1.408       .  A
C1286      F1287   1.358       .  S
C1291      C1292   1.407       .  A
C1291      C1296   1.403       .  A
C1291      F1298   1.358       .  S
C1292      C1293   1.405       .  A
C1293      C1294   1.395       .  A
C1293      F1300   1.358       .  S
C1294      C1295   1.408       .  A
C1294      F1299   1.358       .  S
C1295      C1296   1.410       .  A
C1296      F1297   1.358       .  S
C1301      C1302   1.408       .  A
C1301      C1306   1.397       .  A
C1301      F1308   1.358       .  S
C1302      C1303   1.408       .  A
C1303      C1304   1.396       .  A
C1303      F1310   1.358       .  S
C1304      C1305   1.408       .  A
C1304      F1309   1.358       .  S
C1305      C1306   1.408       .  A
C1306      F1307   1.358       .  S
C1311      C1312   1.409       .  A
C1311      C1316   1.405       .  A
C1311      F1318   1.357       .  S
C1312      C1313   1.408       .  A
C1313      C1314   1.394       .  A
C1313      F1320   1.358       .  S
C1314      C1315   1.406       .  A
C1314      F1319   1.359       .  S
C1315      C1316   1.407       .  A
C1316      F1317   1.357       .  S
C1321      C1322   1.405       .  A
C1321      C1326   1.396       .  A
C1321      F1328   1.358       .  S
C1322      C1323   1.408       .  A
C1323      C1324   1.405       .  A
C1323      F1330   1.358       .  S
C1324      C1325   1.409       .  A
C1324      F1329   1.358       .  S
C1325      C1326   1.409       .  A
C1326      F1327   1.358       .  S
C1331      C1332   1.406       .  A
C1331      C1336   1.398       .  A
C1331      F1338   1.358       .  S
C1332      C1333   1.410       .  A
C1333      C1334   1.402       .  A
C1333      F1340   1.358       .  S
C1334      C1335   1.406       .  A
C1334      F1339   1.358       .  S
C1335      C1336   1.407       .  A
C1336      F1337   1.358       .  S
C1341      C1342   1.409       .  A
C1341      C1346   1.403       .  A
C1341      F1348   1.358       .  S
C1342      C1343   1.405       .  A
C1343      C1344   1.395       .  A
C1343      F1350   1.358       .  S
C1344      C1345   1.408       .  A
C1344      F1349   1.358       .  S
C1345      C1346   1.408       .  A
C1346      F1347   1.358       .  S
C1351      C1352   1.404       .  A
C1351      C1356   1.402       .  A
C1351      F1358   1.358       .  S
C1352      C1353   1.400       .  A
C1353      C1354   1.396       .  A
C1353      F1360   1.358       .  S
C1354      C1355   1.413       .  A
C1354      F1359   1.358       .  S
C1355      C1356   1.412       .  A
C1356      F1357   1.358       .  S
C1361      C1362   1.408       .  A
C1361      C1366   1.397       .  A
C1361      F1368   1.358       .  S
C1362      C1363   1.408       .  A
C1363      C1364   1.397       .  A
C1363      F1370   1.358       .  S
C1364      C1365   1.408       .  A
C1364      F1369   1.358       .  S
C1365      C1366   1.407       .  A
C1366      F1367   1.358       .  S
C1371      C1372   1.408       .  A
C1371      C1376   1.405       .  A
C1371      F1378   1.357       .  S
C1372      C1373   1.404       .  A
C1373      C1374   1.392       .  A
C1373      F1380   1.359       .  S
C1374      C1375   1.409       .  A
C1374      F1379   1.358       .  S
C1375      C1376   1.407       .  A
C1376      F1377   1.357       .  S
C1381      C1382   1.405       .  A
C1381      C1386   1.405       .  A
C1381      F1388   1.358       .  S
C1382      C1383   1.401       .  A
C1383      C1384   1.397       .  A
C1383      F1390   1.358       .  S
C1384      C1385   1.412       .  A
C1384      F1389   1.358       .  S
C1385      C1386   1.412       .  A
C1386      F1387   1.358       .  S
C1391      C1392   1.411       .  A
C1391      C1396   1.406       .  A
C1391      F1398   1.357       .  S
C1392      C1393   1.409       .  A
C1393      C1394   1.391       .  A
C1393      F1400   1.359       .  S
C1394      C1395   1.404       .  A
C1394      F1399   1.358       .  S
C1395      C1396   1.404       .  A
C1396      F1397   1.357       .  S
C1401      C1402   1.411       .  A
C1401      C1406   1.386       .  A
C1401      F1408   1.357       .  S
C1402      C1403   1.412       .  A
C1403      C1404   1.408       .  A
C1403      F1410   1.357       .  S
C1404      C1405   1.404       .  A
C1404      F1409   1.357       .  S
C1405      C1406   1.400       .  A
C1406      F1407   1.359       .  S
C1411      C1412   1.403       .  A
C1411      C1416   1.402       .  A
C1411      F1418   1.358       .  S
C1412      C1413   1.399       .  A
C1413      C1414   1.397       .  A
C1413      F1420   1.358       .  S
C1414      C1415   1.413       .  A
C1414      F1419   1.358       .  S
C1415      C1416   1.412       .  A
C1416      F1417   1.358       .  S
C1421      C1422   1.408       .  A
C1421      C1426   1.393       .  A
C1421      F1428   1.358       .  S
C1422      C1423   1.409       .  A
C1423      C1424   1.404       .  A
C1423      F1430   1.357       .  S
C1424      C1425   1.406       .  A
C1424      F1429   1.358       .  S
C1425      C1426   1.405       .  A
C1426      F1427   1.358       .  S
C1431      C1432   1.408       .  A
C1431      C1436   1.398       .  A
C1431      F1438   1.358       .  S
C1432      C1433   1.409       .  A
C1433      C1434   1.397       .  A
C1433      F1440   1.358       .  S
C1434      C1435   1.408       .  A
C1434      F1439   1.358       .  S
C1435      C1436   1.410       .  A
C1436      F1437   1.358       .  S
C1441      C1442   1.405       .  A
C1441      C1446   1.402       .  A
C1441      F1448   1.358       .  S
C1442      C1443   1.399       .  A
C1443      C1444   1.396       .  A
C1443      F1450   1.358       .  S
C1444      C1445   1.412       .  A
C1444      F1449   1.358       .  S
C1445      C1446   1.410       .  A
C1446      F1447   1.358       .  S
C1451      C1452   1.408       .  A
C1451      C1456   1.402       .  A
C1451      F1458   1.358       .  S
C1452      C1453   1.404       .  A
C1453      C1454   1.395       .  A
C1453      F1460   1.358       .  S
C1454      C1455   1.408       .  A
C1454      F1459   1.358       .  S
C1455      C1456   1.408       .  A
C1456      F1457   1.358       .  S
C1461      C1462   1.404       .  A
C1461      C1466   1.401       .  A
C1461      F1468   1.358       .  S
C1462      C1463   1.401       .  A
C1463      C1464   1.399       .  A
C1463      F1470   1.358       .  S
C1464      C1465   1.411       .  A
C1464      F1469   1.358       .  S
C1465      C1466   1.410       .  A
C1466      F1467   1.358       .  S
C1471      C1472   1.408       .  A
C1471      C1476   1.400       .  A
C1471      F1478   1.358       .  S
C1472      C1473   1.404       .  A
C1473      C1474   1.396       .  A
C1473      F1480   1.358       .  S
C1474      C1475   1.407       .  A
C1474      F1479   1.358       .  S
C1475      C1476   1.405       .  A
C1476      F1477   1.358       .  S
C1481      C1482   1.408       .  A
C1481      C1486   1.397       .  A
C1481      F1488   1.358       .  S
C1482      C1483   1.409       .  A
C1483      C1484   1.397       .  A
C1483      F1490   1.358       .  S
C1484      C1485   1.408       .  A
C1484      F1489   1.358       .  S
C1485      C1486   1.409       .  A
C1486      F1487   1.358       .  S
C1491      C1492   1.410       .  A
C1491      C1496   1.398       .  A
C1491      F1498   1.358       .  S
C1492      C1493   1.408       .  A
C1493      C1494   1.397       .  A
C1493      F1500   1.358       .  S
C1494      C1495   1.408       .  A
C1494      F1499   1.358       .  S
C1495      C1496   1.406       .  A
C1496      F1497   1.358       .  S
C1501      C1502   1.405       .  A
C1501      C1506   1.398       .  A
C1501      F1508   1.358       .  S
C1502      C1503   1.409       .  A
C1503      C1504   1.403       .  A
C1503      F1510   1.358       .  S
C1504      C1505   1.407       .  A
C1504      F1509   1.358       .  S
C1505      C1506   1.408       .  A
C1506      F1507   1.358       .  S
C1511      C1512   1.411       .  A
C1511      C1516   1.406       .  A
C1511      F1518   1.357       .  S
C1512      C1513   1.407       .  A
C1513      C1514   1.387       .  A
C1513      F1520   1.359       .  S
C1514      C1515   1.404       .  A
C1514      F1519   1.357       .  S
C1515      C1516   1.405       .  A
C1516      F1517   1.357       .  S
C1521      C1522   1.406       .  A
C1521      C1526   1.406       .  A
C1521      F1528   1.357       .  S
C1522      C1523   1.407       .  A
C1523      C1524   1.389       .  A
C1523      F1530   1.357       .  S
C1524      C1525   1.405       .  A
C1524      F1529   1.359       .  S
C1525      C1526   1.409       .  A
C1526      F1527   1.357       .  S
C1531      C1532   1.413       .  A
C1531      C1536   1.396       .  A
C1531      F1538   1.358       .  S
C1532      C1533   1.412       .  A
C1533      C1534   1.403       .  A
C1533      F1540   1.358       .  S
C1534      C1535   1.404       .  A
C1534      F1539   1.358       .  S
C1535      C1536   1.400       .  A
C1536      F1537   1.358       .  S
C1541      C1542   1.407       .  A
C1541      C1546   1.392       .  A
C1541      F1548   1.359       .  S
C1542      C1543   1.407       .  A
C1543      C1544   1.404       .  A
C1543      F1550   1.357       .  S
C1544      C1545   1.408       .  A
C1544      F1549   1.357       .  S
C1545      C1546   1.406       .  A
C1546      F1547   1.358       .  S
C1551      C1552   1.407       .  A
C1551      C1556   1.397       .  A
C1551      F1558   1.358       .  S
C1552      C1553   1.409       .  A
C1553      C1554   1.398       .  A
C1553      F1560   1.358       .  S
C1554      C1555   1.408       .  A
C1554      F1559   1.358       .  S
C1555      C1556   1.409       .  A
C1556      F1557   1.358       .  S
