geometry optimzed in LAMMPS
_audit_creation_date              2020-11-30 
_audit_creation_method            'lammps2cif' 
_symmetry_space_group_name_H-M    'P1' 
_symmetry_Int_Tables_number       1 
_symmetry_cell_setting            triclinic 
loop_ 
_symmetry_equiv_pos_as_xyz 
  x,y,z 
_cell_length_a                    39.49640752 
_cell_length_b                    32.99964700954796 
_cell_length_c                    25.415765143846986 
_cell_angle_alpha                 90.49005215996158 
_cell_angle_beta                  87.79113422056959 
_cell_angle_gamma                 89.61880066034686 
loop_ 
_atom_site_label 
_atom_site_type_symbol 
_atom_site_fract_x 
_atom_site_fract_y 
_atom_site_fract_z 
_atom_site_charge 
In1        In  0.53230997  0.69196556  0.50132270     1.36900
C2          C  0.08844735  0.74303076  0.50170623     0.79200
O3          O  0.51273944  0.67771562  0.58211801    -0.59300
O4          O  0.01731625  0.64680272  0.54981761    -0.50200
C5          C  0.47418151  0.73386881  0.49619141     0.71800
O6          O  0.50285177  0.75008506  0.48944711    -0.45000
C7          C  0.02161717  0.66712879  0.41517695     0.76500
O8          O  0.06398565  0.75471212  0.53149234    -0.56900
O9          O  0.04148526  0.65422691  0.44909541    -0.47000
O10         O  0.08178540  0.71279929  0.47343393    -0.53300
C11         C  0.53415765  0.65037291  0.59046047     0.86700
O12         O  0.47549959  0.69637891  0.50484290    -0.55200
O13         O  0.53652794  0.68647516  0.41390253    -0.58500
In14       In  0.28276316  0.85190041  0.49002465     1.36900
C15         C  0.22258182  0.81546044  0.49645333     0.79200
O16         O  0.29043335  0.84219094  0.57496516    -0.59300
O17         O  0.28413116  0.90313359  0.54999732    -0.50200
C18         C  0.34367457  0.81655046  0.48496341     0.71800
O19         O  0.31634117  0.79708160  0.48978690    -0.45000
C20         C  0.27564512  0.89081193  0.39912575     0.76500
O21         O  0.24840834  0.79919751  0.47426940    -0.56900
O22         O  0.27535637  0.90930848  0.44291289    -0.47000
O23         O  0.22767757  0.84995609  0.51605346    -0.53300
C24         C  0.28910345  0.87916735  0.58761218     0.86700
O25         O  0.33974251  0.85428188  0.47942121    -0.55200
O26         O  0.28094111  0.85326728  0.40238492    -0.58500
N27         N  0.28174888  0.92265636  0.85044586    -0.01900
C28         C  0.29077632  0.89356382  0.81374715     0.00700
C29         C  0.29682424  0.85712675  0.83802035    -0.22200
C30         C  0.29180850  0.86358909  0.89090735    -0.22400
C31         C  0.28118452  0.90342801  0.89815793     0.00600
H32         H  0.30345449  0.82847564  0.81917613     0.14400
H33         H  0.29350340  0.84064615  0.92090230     0.14400
N34         N  0.28850124  0.09506375  0.83036015    -0.01900
C35         C  0.28344934  0.12306521  0.79230662     0.00700
C36         C  0.27886641  0.16117612  0.81459734    -0.22200
C37         C  0.28190265  0.15708880  0.86759604    -0.22400
C38         C  0.28780946  0.11651240  0.87644843     0.00600
H39         H  0.27666246  0.18952458  0.79383003     0.14400
H40         H  0.28160326  0.18141759  0.89645192     0.14400
N41         N  0.00789140  0.61655103  0.15599357    -0.01900
C42         C  0.99720923  0.63850412  0.19931580     0.00700
C43         C  0.47987411  0.62953317  0.18304977    -0.22200
C44         C  0.47981494  0.62567261  0.12931464    -0.22400
C45         C  0.99281925  0.63415875  0.11462778     0.00600
H46         H  0.46474251  0.65061089  0.20703199     0.14400
H47         H  0.46486146  0.64345863  0.10304005     0.14400
N48         N  0.08408670  0.46750085  0.14414170    -0.01900
C49         C  0.09461379  0.44335575  0.18368508     0.00700
C50         C  0.11813025  0.41518970  0.16460778    -0.22200
C51         C  0.12200907  0.42128577  0.11169685    -0.22400
C52         C  0.10117262  0.45345804  0.09987436     0.00600
H53         H  0.12934380  0.39081248  0.18640583     0.14400
H54         H  0.13729163  0.40301340  0.08420195     0.14400
N55         N  0.24611076  0.95351886  0.15081270    -0.01900
C56         C  0.22978836  0.94122279  0.19604601     0.00700
C57         C  0.19845303  0.92573589  0.18550804    -0.22200
C58         C  0.19545957  0.92780131  0.13192342    -0.22400
C59         C  0.22563654  0.94313276  0.11073172     0.00600
H60         H  0.18067773  0.91194452  0.21331197     0.14400
H61         H  0.17454771  0.91593449  0.11038396     0.14400
N62         N  0.32393216  0.09870597  0.13399619    -0.01900
C63         C  0.33986068  0.12278687  0.16883065     0.00700
C64         C  0.36140192  0.14916945  0.14225483    -0.22200
C65         C  0.35829031  0.14173516  0.08951544    -0.22400
C66         C  0.33506172  0.11092287  0.08536101     0.00600
H67         H  0.37561330  0.17357340  0.15936400     0.14400
H68         H  0.36982158  0.15891821  0.05756412     0.14400
In69       In  0.05979960  0.35767474  0.48815733     1.36900
C70         C  0.00187284  0.31605835  0.48938050     0.79200
O71         O  0.06337835  0.35485758  0.57515375    -0.59300
O72         O  0.05246004  0.41208878  0.54278181    -0.50200
C73         C  0.12051173  0.32113405  0.48513546     0.71800
O74         O  0.09294556  0.30231189  0.48944842    -0.45000
C75         C  0.06082369  0.39473003  0.39483295     0.76500
O76         O  0.03064041  0.29960242  0.48406784    -0.56900
O77         O  0.06238391  0.41417584  0.43759017    -0.47000
O78         O  0.00275457  0.35415460  0.49350593    -0.53300
C79         C  0.05721102  0.39183702  0.58371984     0.86700
O80         O  0.11695973  0.35909769  0.48249011    -0.55200
O81         O  0.05864782  0.35698227  0.40076966    -0.58500
In82       In  0.31139241  0.19964662  0.48470722     1.36900
C83         C  0.37302074  0.23141877  0.49558954     0.79200
O84         O  0.30666150  0.20036965  0.57211557    -0.59300
O85         O  0.30439641  0.14307135  0.53356920    -0.50200
C86         C  0.25197822  0.23866675  0.48089682     0.71800
O87         O  0.28007722  0.25663777  0.47855301    -0.45000
C88         C  0.31652685  0.16875227  0.38739626     0.76500
O89         O  0.34622286  0.25250935  0.49763467    -0.56900
O90         O  0.31256733  0.14658955  0.42736424    -0.47000
O91         O  0.36805975  0.19404962  0.48857156    -0.53300
C92         C  0.30383061  0.16253599  0.57656732     0.86700
O93         O  0.25457615  0.20072828  0.48439922    -0.55200
O94         O  0.31849666  0.20600719  0.39795247    -0.58500
N95         N  0.00139964  0.60838811  0.84779210    -0.01900
C96         C  0.51926150  0.61564154  0.80765318     0.00700
C97         C  0.49903532  0.64709746  0.82705115    -0.22200
C98         C  0.49691327  0.64315618  0.88058911    -0.22400
C99         C  0.51625394  0.60967926  0.89261965     0.00600
H100        H  0.48715002  0.67054214  0.80444537     0.14400
H101        H  0.48342851  0.66322973  0.90814746     0.14400
N102        N  0.07749509  0.45987562  0.83580226    -0.01900
C103        C  0.08557269  0.43405009  0.79504158     0.00700
C104        C  0.10804412  0.40459569  0.81063174    -0.22200
C105        C  0.11363095  0.41169623  0.86261017    -0.22400
C106        C  0.09484344  0.44566619  0.87721192     0.00600
H107        H  0.11798363  0.37936206  0.78715606     0.14400
H108        H  0.12911580  0.39346062  0.88760474     0.14400
C109        C  0.02075613  0.57106276  0.84452071    -0.03800
C110        C  0.00499625  0.53493489  0.82867660    -0.00900
C111        C  0.02345181  0.49813582  0.82514754     0.04100
C112        C  0.05842153  0.49754198  0.83483797    -0.03800
C113        C  0.07446724  0.53435936  0.84721642    -0.00900
C114        C  0.05537371  0.57021722  0.85556557     0.04100
C115        C  0.50068190  0.51999981  0.80689174     0.38800
C116        C  0.11104997  0.53629492  0.84723465     0.38800
C117        C  0.07143687  0.60537835  0.87761222     0.37200
C118        C  0.00575463  0.46113639  0.81333950     0.37200
N119        N  0.08539418  0.63224938  0.89644075    -0.37600
N120        N  0.99016943  0.43248940  0.80444871    -0.37600
N121        N  0.14022715  0.53935219  0.84542959    -0.37100
N122        N  0.47306243  0.51840872  0.79352477    -0.37100
C123        C  0.05645144  0.40913755  0.63800107    -0.03800
C124        C  0.04375040  0.38526462  0.68004358    -0.00900
C125        C  0.05112783  0.39538695  0.73214340     0.04100
C126        C  0.06946818  0.43095488  0.74323207    -0.03800
C127        C  0.07829064  0.45762826  0.70187448    -0.00900
C128        C  0.07200200  0.44661639  0.64915964     0.04100
C129        C  0.02356900  0.34962695  0.66972687     0.38800
C130        C  0.09630460  0.49467086  0.71283223     0.38800
C131        C  0.08387257  0.47239417  0.60646357     0.37200
C132        C  0.04162660  0.36763019  0.77421518     0.37200
N133        N  0.09336235  0.49292989  0.57235370    -0.37600
N134        N  0.03423686  0.34552915  0.80778811    -0.37600
N135        N  0.11066795  0.52441252  0.72080219    -0.37100
N136        N  0.00736705  0.32132189  0.66159198    -0.37100
C137        C  0.15424055  0.30018956  0.48349110    -0.03800
C138        C  0.18261688  0.31894920  0.50547537    -0.00900
C139        C  0.21453205  0.29924988  0.50383561     0.04100
C140        C  0.21854890  0.26023822  0.48062745    -0.03800
C141        C  0.19007409  0.24130200  0.45903647    -0.00900
C142        C  0.15816865  0.26101006  0.46067615     0.04100
C143        C  0.17869873  0.35759744  0.53284289     0.38800
C144        C  0.19348994  0.20168926  0.43395585     0.38800
C145        C  0.12950319  0.24071886  0.43820747     0.37200
C146        C  0.24280204  0.31864620  0.52854293     0.37200
N147        N  0.10668252  0.22429489  0.42059684    -0.37600
N148        N  0.26528117  0.33414281  0.54836271    -0.37600
N149        N  0.19610715  0.17008287  0.41405223    -0.37100
N150        N  0.17549884  0.38825247  0.55500580    -0.37100
C151        C  0.96970812  0.29247849  0.49084767    -0.03800
C152        C  0.46830607  0.24850904  0.47484660    -0.00900
C153        C  0.43545992  0.23247659  0.47026415     0.04100
C154        C  0.40763844  0.24904141  0.50018184    -0.03800
C155        C  0.41314561  0.28257649  0.53392016    -0.00900
C156        C  0.44584903  0.29950956  0.53714314     0.04100
C157        C  0.99496622  0.24278208  0.42608553     0.38800
C158        C  0.38536812  0.29939117  0.56635097     0.38800
C159        C  0.94514382  0.33965318  0.55904433     0.37200
C160        C  0.43011401  0.20051858  0.43190447     0.37200
N161        N  0.94795502  0.36673595  0.58774608    -0.37600
N162        N  0.42582433  0.17539328  0.40086028    -0.37600
N163        N  0.36329227  0.31292397  0.59228577    -0.37100
N164        N  0.01748566  0.23127291  0.39940187    -0.37100
C165        C  0.31851059  0.15321161  0.33204735    -0.03800
C166        C  0.33466743  0.11584792  0.31852667    -0.00900
C167        C  0.33963618  0.10419611  0.26499978     0.04100
C168        C  0.32913695  0.13008876  0.22485251    -0.03800
C169        C  0.31179694  0.16655326  0.23845982    -0.00900
C170        C  0.30562645  0.17739939  0.29160960     0.04100
C171        C  0.34789491  0.09032238  0.35919291     0.38800
C172        C  0.30049549  0.19344081  0.19756030     0.38800
C173        C  0.28542898  0.21335676  0.30446835     0.37200
C174        C  0.35718190  0.06665010  0.25124442     0.37200
N175        N  0.26921875  0.24187169  0.31485856    -0.37600
N176        N  0.37120310  0.03660560  0.24063768    -0.37600
N177        N  0.29151331  0.21499483  0.16515307    -0.37100
N178        N  0.35856694  0.06987088  0.39149373    -0.37100
C179        C  0.26697462  0.98941105  0.15039352    -0.03800
C180        C  0.30128328  0.98787967  0.13340694    -0.00900
C181        C  0.32050578  0.02384430  0.13107471     0.04100
C182        C  0.30554500  0.06170079  0.14508808    -0.03800
C183        C  0.27194336  0.06266238  0.16576471    -0.00900
C184        C  0.25231781  0.02717298  0.16577511     0.04100
C185        C  0.31617745  0.95002384  0.11470025     0.38800
C186        C  0.25702568  0.09966404  0.18721223     0.38800
C187        C  0.21596437  0.03046483  0.17515826     0.37200
C188        C  0.35628409  0.02171193  0.11671413     0.37200
N189        N  0.18686049  0.03357482  0.18102987    -0.37600
N190        N  0.38504732  0.01943242  0.10660937    -0.37600
N191        N  0.24383165  0.12810103  0.20566501    -0.37100
N192        N  0.32857658  0.92036826  0.09847598    -0.37100
C193        C  0.09335039  0.46106296  0.93261275    -0.03800
C194        C  0.06369261  0.45599982  0.96475085    -0.00900
C195        C  0.06523875  0.45796415  0.02028442     0.04100
C196        C  0.09638188  0.46550457  0.04412644    -0.03800
C197        C  0.12545831  0.47345805  0.01163146    -0.00900
C198        C  0.12400895  0.47090869  0.95645556     0.04100
C199        C  0.03261011  0.44262991  0.94173747     0.38800
C200        C  0.15811826  0.47955789  0.03475016     0.38800
C201        C  0.15523869  0.47378140  0.92463131     0.37200
C202        C  0.03587617  0.44573505  0.05208750     0.37200
N203        N  0.18034529  0.47543262  0.89973437    -0.37600
N204        N  0.01204093  0.43487364  0.07563758    -0.37600
N205        N  0.18442019  0.48381618  0.05250768    -0.37100
N206        N  0.00746902  0.43115483  0.92530392    -0.37100
C207        C  0.06254937  0.41348681  0.34137491    -0.03800
C208        C  0.05017509  0.39148327  0.29816111    -0.00900
C209        C  0.05938413  0.40266425  0.24640867     0.04100
C210        C  0.07822328  0.43824880  0.23673630    -0.03800
C211        C  0.08654936  0.46344566  0.27925666    -0.00900
C212        C  0.07928580  0.45085227  0.33165791     0.04100
C213        C  0.02800082  0.35699484  0.30648290     0.38800
C214        C  0.10441370  0.50098808  0.26904237     0.38800
C215        C  0.09081536  0.47538541  0.37494007     0.37200
C216        C  0.05035709  0.37658078  0.20277171     0.37200
N217        N  0.10013418  0.49512026  0.40928665    -0.37600
N218        N  0.04318093  0.35599134  0.16789436    -0.37600
N219        N  0.11849906  0.53105485  0.26081170    -0.37100
N220        N  0.01018695  0.32963550  0.31300611    -0.37100
C221        C  0.51726769  0.59297588  0.05945763    -0.03800
C222        C  0.50587934  0.56111336  0.02745126    -0.00900
C223        C  0.50813874  0.56437718  0.97194606     0.04100
C224        C  0.52281033  0.59902792  0.94822159    -0.03800
C225        C  0.01212466  0.65216021  0.97028506    -0.00900
C226        C  0.01408554  0.65454116  0.02532727     0.04100
C227        C  0.48879577  0.52663179  0.05102846     0.38800
C228        C  0.02484318  0.68546850  0.93832997     0.38800
C229        C  0.02938476  0.68990750  0.04892304     0.37200
C230        C  0.49145958  0.53424477  0.94054661     0.37200
N231        N  0.04146476  0.71811355  0.06777670    -0.37600
N232        N  0.47720708  0.50940119  0.91808046    -0.37600
N233        N  0.03467091  0.71227530  0.91311196    -0.37100
N234        N  0.47489323  0.49855440  0.06786106    -0.37100
C235        C  0.06480257  0.50511907  0.14927043    -0.03800
C236        C  0.07980933  0.54190311  0.13276408    -0.00900
C237        C  0.06047319  0.57792444  0.13147481     0.04100
C238        C  0.02744698  0.57929207  0.15449366    -0.03800
C239        C  0.01314270  0.54338580  0.17472963    -0.00900
C240        C  0.03106350  0.50622163  0.17023153     0.04100
C241        C  0.11595759  0.54388832  0.12156450     0.38800
C242        C  0.97889606  0.54401022  0.19719942     0.38800
C243        C  0.01351901  0.46956582  0.18525026     0.37200
C244        C  0.07511251  0.61338115  0.10665378     0.37200
N245        N  0.99748579  0.44168112  0.19725917    -0.37600
N246        N  0.08813397  0.64081366  0.08655680    -0.37600
N247        N  0.95139283  0.54317454  0.21448893    -0.37100
N248        N  0.14488265  0.54721661  0.11421996    -0.37100
C249        C  0.29654961  0.10179149  0.92958756    -0.03800
C250        C  0.33003581  0.08934937  0.93941038    -0.00900
C251        C  0.34096163  0.08672490  0.99159443     0.04100
C252        C  0.31983509  0.10058995  0.03419220    -0.03800
C253        C  0.28661492  0.11375706  0.02414537    -0.00900
C254        C  0.27438542  0.11162278  0.97279625     0.04100
C255        C  0.35503053  0.08450182  0.89661912     0.38800
C256        C  0.26617525  0.13478279  0.06439515     0.38800
C257        C  0.23962138  0.12359432  0.96398941     0.37200
C258        C  0.37533478  0.07348097  0.00070954     0.37200
N259        N  0.21191052  0.13345289  0.95768753    -0.37600
N260        N  0.40290551  0.06304338  0.00697165    -0.37600
N261        N  0.24912337  0.15304910  0.09416298    -0.37100
N262        N  0.37647918  0.08133904  0.86454658    -0.37100
C263        C  0.30156865  0.14319532  0.62893556    -0.03800
C264        C  0.27274478  0.12080054  0.64547077    -0.00900
C265        C  0.26837677  0.10917221  0.69881624     0.04100
C266        C  0.29298767  0.11946029  0.73534042    -0.03800
C267        C  0.32314779  0.13879212  0.71737368    -0.00900
C268        C  0.32713579  0.15115035  0.66470855     0.04100
C269        C  0.24605703  0.11340658  0.60905139     0.38800
C270        C  0.34888664  0.14942225  0.75431928     0.38800
C271        C  0.35667385  0.17450172  0.64803805     0.37200
C272        C  0.23731059  0.08982772  0.71705282     0.37200
N273        N  0.37984585  0.19360901  0.63455380    -0.37600
N274        N  0.21240982  0.07450157  0.73145298    -0.37600
N275        N  0.36941054  0.15813414  0.78359035    -0.37100
N276        N  0.22461926  0.10779192  0.58012352    -0.37100
C277        C  0.26438866  0.91713273  0.94980300    -0.03800
C278        C  0.27239703  0.95368679  0.97568048    -0.00900
C279        C  0.25530167  0.96460432  0.02380876     0.04100
C280        C  0.23764473  0.93523790  0.05412090    -0.03800
C281        C  0.23148712  0.89732063  0.02946736    -0.00900
C282        C  0.24123342  0.89069616  0.97608275     0.04100
C283        C  0.30009626  0.97833326  0.95612635     0.38800
C284        C  0.21622735  0.86399138  0.05855972     0.38800
C285        C  0.22676470  0.85665963  0.94829836     0.37200
C286        C  0.25124642  0.00687532  0.03717894     0.37200
N287        N  0.21501949  0.82972649  0.92612547    -0.37600
N288        N  0.24612872  0.04065502  0.04695244    -0.37600
N289        N  0.20423894  0.83711039  0.08135867    -0.37100
N290        N  0.32304701  0.99719909  0.94130859    -0.37100
C291        C  0.28469339  0.05146023  0.82635415    -0.03800
C292        C  0.31172975  0.02654224  0.80814678    -0.00900
C293        C  0.31124043  0.98459347  0.81848210     0.04100
C294        C  0.28185263  0.96606063  0.84092837    -0.03800
C295        C  0.25327784  0.99062564  0.85394788    -0.00900
C296        C  0.25480220  0.03306517  0.84676147     0.04100
C297        C  0.33989391  0.04353287  0.77794093     0.38800
C298        C  0.22266230  0.97261274  0.87613510     0.38800
C299        C  0.22501816  0.05788498  0.85795410     0.37200
C300        C  0.34252829  0.96171646  0.81180186     0.37600
N301        N  0.20085912  0.07738196  0.86569537    -0.37600
N302        N  0.36814270  0.94457644  0.80754081    -0.37600
N303        N  0.19809922  0.95850243  0.89399669    -0.37100
N304        N  0.36260263  0.05575820  0.75284280    -0.37100
C305        C  0.29288588  0.89792454  0.75485158    -0.03800
C306        C  0.32141450  0.88197011  0.72555500    -0.00900
C307        C  0.32121721  0.87919776  0.67016418     0.04100
C308        C  0.29267141  0.89210267  0.64312231    -0.03800
C309        C  0.26523293  0.91050034  0.67137430    -0.00900
C310        C  0.26479233  0.91224930  0.72706590     0.04100
C311        C  0.35046858  0.86599918  0.75210649     0.38800
C312        C  0.23620751  0.92470550  0.64324796     0.38800
C313        C  0.23340183  0.92332809  0.75490613     0.37200
C314        C  0.35030375  0.86221314  0.64072833     0.37200
N315        N  0.20742255  0.93129936  0.77504075    -0.37600
N316        N  0.37349612  0.84882460  0.61720738    -0.37600
N317        N  0.21316523  0.93612819  0.62065991    -0.37100
N318        N  0.37358927  0.85276074  0.77290209    -0.37100
C319        C  0.24608022  0.93515201  0.24766155    -0.03800
C320        C  0.27217215  0.90589196  0.25122215    -0.00900
C321        C  0.28438598  0.89498432  0.30066746     0.04100
C322        C  0.26865041  0.91035012  0.34770948    -0.03800
C323        C  0.24304048  0.94031509  0.34432330    -0.00900
C324        C  0.23226072  0.95313318  0.29456392     0.04100
C325        C  0.28352601  0.88295076  0.20486186     0.38800
C326        C  0.22572148  0.95572701  0.39185010     0.38800
C327        C  0.20569781  0.98348136  0.29230731     0.37200
C328        C  0.31289510  0.86714677  0.30298866     0.37200
N329        N  0.18443904  0.00777571  0.29227567    -0.37600
N330        N  0.33574304  0.84514018  0.30492393    -0.37600
N331        N  0.21167015  0.96778593  0.42967267    -0.37100
N332        N  0.29196078  0.86349012  0.16854789    -0.37100
C333        C  0.52666052  0.61052308  0.74997788    -0.03800
C334        C  0.49898279  0.60611213  0.71656876    -0.00900
C335        C  0.50292315  0.61418507  0.66243795     0.04100
C336        C  0.53392210  0.62885262  0.64141424    -0.03800
C337        C  0.04527771  0.64564209  0.68392942    -0.00900
C338        C  0.03476756  0.64192898  0.73718261     0.04100
C339        C  0.46528950  0.59782677  0.73848314     0.38800
C340        C  0.07960434  0.65833277  0.67014836     0.38800
C341        C  0.05465648  0.66183248  0.77635482     0.37200
C342        C  0.47449633  0.60911031  0.62846339     0.37200
N343        N  0.07054419  0.68001678  0.80554659    -0.37600
N344        N  0.45195730  0.60487626  0.60121502    -0.37600
N345        N  0.10707703  0.66799316  0.65918190    -0.37100
N346        N  0.43819221  0.59193042  0.75553566    -0.37100
C347        C  0.01732614  0.64751928  0.36327240    -0.03800
C348        C  0.49898578  0.60419941  0.34958246    -0.00900
C349        C  0.49263923  0.59342883  0.29690542     0.04100
C350        C  0.00574186  0.63233867  0.25551764    -0.03800
C351        C  0.03907671  0.63861365  0.27252726    -0.00900
C352        C  0.04486586  0.64489857  0.32654529     0.04100
C353        C  0.47451683  0.59411538  0.39138491     0.38800
C354        C  0.06710308  0.64423844  0.23508790     0.38800
C355        C  0.07894383  0.65201218  0.34379905     0.37200
C356        C  0.46050505  0.57508066  0.28520809     0.37200
N357        N  0.10612795  0.65732894  0.35769805    -0.37600
N358        N  0.43436843  0.56131631  0.27681230    -0.37600
N359        N  0.09067175  0.64999160  0.20784019    -0.37100
N360        N  0.45498562  0.58584053  0.42461602    -0.37100
C361        C  0.18864755  0.79619376  0.49821301    -0.03800
C362        C  0.17002533  0.79252316  0.54647143    -0.00900
C363        C  0.13720725  0.77556464  0.54773559     0.04100
C364        C  0.12251862  0.76252516  0.50051851    -0.03800
C365        C  0.14109290  0.76696618  0.45217249    -0.00900
C366        C  0.17417674  0.78301187  0.45116812     0.04100
C367        C  0.18521241  0.80483953  0.59516580     0.38800
C368        C  0.12546129  0.75747727  0.40288468     0.38800
C369        C  0.19289015  0.78736193  0.40126662     0.37200
C370        C  0.11908553  0.77064034  0.59799799     0.37200
N371        N  0.20791503  0.79082283  0.36157581    -0.37600
N372        N  0.10472445  0.76685700  0.63819800    -0.37600
N373        N  0.11294102  0.75058634  0.36340314    -0.37100
N374        N  0.19748954  0.81458060  0.63387714    -0.37100
C375        C  0.44141262  0.75665421  0.49454167    -0.03800
C376        C  0.43697194  0.78814612  0.45790223    -0.00900
C377        C  0.40543696  0.80857910  0.45559597     0.04100
C378        C  0.37754853  0.79657036  0.48829721    -0.03800
C379        C  0.38226008  0.76574444  0.52577738    -0.00900
C380        C  0.41410003  0.74653860  0.52955202     0.04100
C381        C  0.46443904  0.79872362  0.42113665     0.38800
C382        C  0.35476148  0.75492354  0.56250006     0.38800
C383        C  0.41909925  0.71793153  0.57168632     0.37200
C384        C  0.40170210  0.84153749  0.41881959     0.37200
N385        N  0.42298444  0.69558701  0.60581144    -0.37600
N386        N  0.39891446  0.86809271  0.38981392    -0.37600
N387        N  0.33284973  0.74637348  0.59178515    -0.37100
N388        N  0.48632266  0.80705256  0.39169023    -0.37100
In389      In  0.02844545  0.70514120  0.50664792     1.36900
C390        C  0.58874807  0.73615230  0.50671544     0.79200
O391        O  0.03946493  0.69520714  0.59090793    -0.59300
O392        O  0.55526906  0.64379763  0.55280726    -0.50200
C393        C  0.97123147  0.74964418  0.51519016     0.71800
O394        O  0.99867964  0.76321319  0.49537540    -0.45000
C395        C  0.52986970  0.64922871  0.41204412     0.76500
O396        O  0.56297103  0.74237926  0.53660633    -0.56900
O397        O  0.52455480  0.63317974  0.45643909    -0.47000
O398        O  0.58549669  0.70745152  0.47434244    -0.53300
C399        C  0.02726011  0.66012942  0.59310673     0.86700
O400        O  0.97379519  0.71395082  0.53187991    -0.55200
O401        O  0.00587023  0.69925398  0.42797676    -0.58500
In402      In  0.77586639  0.86031190  0.51391654     1.36900
C403        C  0.71656223  0.82196555  0.51433849     0.79200
O404        O  0.78121394  0.84791272  0.59909476    -0.59300
O405        O  0.77322887  0.90928877  0.57816565    -0.50200
C406        C  0.83777953  0.82682417  0.50916168     0.71800
O407        O  0.81093252  0.80633891  0.51262958    -0.45000
C408        C  0.77128506  0.90087631  0.42283106     0.76500
O409        O  0.74386324  0.80580993  0.49717110    -0.56900
O410        O  0.77215450  0.91875594  0.46700595    -0.47000
O411        O  0.71952329  0.85759067  0.53174115    -0.53300
C412        C  0.77828047  0.88417523  0.61448750     0.86700
O413        O  0.83292042  0.86456586  0.50565072    -0.55200
O414        O  0.77381693  0.86291181  0.42596583    -0.58500
N415        N  0.77755016  0.92968543  0.87765718    -0.01900
C416        C  0.78190841  0.89840754  0.84216973     0.00700
C417        C  0.78326410  0.86187395  0.86799004    -0.22200
C418        C  0.77986388  0.87033141  0.92064193    -0.22400
C419        C  0.77488919  0.91177531  0.92623028     0.00600
H420        H  0.78563535  0.83198399  0.85032894     0.14400
H421        H  0.77884669  0.84805279  0.95166758     0.14400
N422        N  0.81572613  0.09667810  0.85911939    -0.01900
C423        C  0.81713268  0.12427975  0.81945084     0.00700
C424        C  0.82426864  0.16236383  0.83895537    -0.22200
C425        C  0.82842206  0.15835243  0.89172277    -0.22400
C426        C  0.82327465  0.11801997  0.90340677     0.00600
H427        H  0.82855996  0.18961786  0.81631454     0.14400
H428        H  0.83628495  0.18193467  0.91839481     0.14400
N429        N  0.52009403  0.58374829  0.15825853    -0.01900
C430        C  0.50462830  0.60351670  0.19999092     0.00700
C431        C  0.97598708  0.66966232  0.18488715    -0.22200
C432        C  0.97303347  0.66673730  0.13153707    -0.22400
C433        C  0.50460280  0.59748207  0.11502784     0.00600
H434        H  0.96398742  0.69226375  0.21061844     0.14400
H435        H  0.95866595  0.68685870  0.10727983     0.14400
N436        N  0.59719837  0.43588543  0.15678256    -0.01900
C437        C  0.60549860  0.40989057  0.19571827     0.00700
C438        C  0.62822869  0.38085502  0.17659038    -0.22200
C439        C  0.63402655  0.38858234  0.12426546    -0.22400
C440        C  0.61498011  0.42243282  0.11284175     0.00600
H441        H  0.63843634  0.35569755  0.19813855     0.14400
H442        H  0.64992152  0.37086189  0.09699050     0.14400
N443        N  0.74846045  0.97118001  0.17562191    -0.01900
C444        C  0.73026043  0.96357135  0.22101066     0.00700
C445        C  0.69648620  0.95889929  0.21073312    -0.22200
C446        C  0.69387680  0.96310678  0.15718268    -0.22400
C447        C  0.72637030  0.96890019  0.13581626     0.00600
H448        H  0.67636551  0.95048037  0.23852362     0.14400
H449        H  0.67115790  0.95811385  0.13561038     0.14400
N450        N  0.85830365  0.08293140  0.15770077    -0.01900
C451        C  0.87878009  0.09654984  0.19566729     0.00700
C452        C  0.90807871  0.11237261  0.17248698    -0.22200
C453        C  0.90495865  0.10964233  0.11884572    -0.22400
C454        C  0.87406769  0.09173944  0.11069483     0.00600
H455        H  0.92786877  0.12821172  0.19236757     0.14400
H456        H  0.92206657  0.12236156  0.08917577     0.14400
In457      In  0.56973029  0.33461993  0.50552565     1.36900
C458        C  0.50795487  0.30148541  0.50886899     0.79200
O459        O  0.57366540  0.33173766  0.59224910    -0.59300
O460        O  0.57070963  0.39001651  0.55890242    -0.50200
C461        C  0.62793331  0.29305579  0.50532725     0.71800
O462        O  0.59953174  0.27612397  0.50259350    -0.45000
C463        C  0.57265545  0.36879364  0.41033482     0.76500
O464        O  0.53497532  0.28099945  0.50622885    -0.56900
O465        O  0.57260985  0.38963182  0.45217205    -0.47000
O466        O  0.51256988  0.33922377  0.51128782    -0.53300
C467        C  0.57366067  0.36946243  0.60016341     0.86700
O468        O  0.62651543  0.33126729  0.50651313    -0.55200
O469        O  0.57159631  0.33118240  0.41796677    -0.58500
In470      In  0.82076198  0.17862070  0.50246334     1.36900
C471        C  0.87656810  0.22349489  0.49658556     0.79200
O472        O  0.83302974  0.17913996  0.58715945    -0.59300
O473        O  0.80925509  0.12651653  0.55825826    -0.50200
C474        C  0.75900035  0.21167566  0.50629789     0.71800
O475        O  0.78571548  0.23227792  0.50862169    -0.45000
C476        C  0.83163002  0.14526273  0.40732838     0.76500
O477        O  0.84717721  0.23888052  0.50025651    -0.56900
O478        O  0.84015247  0.12763977  0.44874080    -0.47000
O479        O  0.87713151  0.18526543  0.49641034    -0.53300
C480        C  0.82125235  0.14464684  0.59723153     0.86700
O481        O  0.76399274  0.17395513  0.50178163    -0.55200
O482        O  0.81486640  0.17741128  0.41570097    -0.58500
N483        N  0.53002472  0.59233800  0.84786983    -0.01900
C484        C  0.98919600  0.62889433  0.80637169     0.00700
C485        C  0.96534215  0.65729541  0.82344194    -0.22200
C486        C  0.96262823  0.65421243  0.87723215    -0.22400
C487        C  0.98502128  0.62412260  0.89129247     0.00600
H488        H  0.95253532  0.67914921  0.79954613     0.14400
H489        H  0.94765077  0.67368994  0.90367440     0.14400
N490        N  0.60489750  0.44253635  0.84689718    -0.01900
C491        C  0.61521969  0.41797058  0.80580552     0.00700
C492        C  0.63897614  0.39019810  0.82170177    -0.22200
C493        C  0.64300928  0.39681480  0.87419756    -0.22400
C494        C  0.62208065  0.42898257  0.88904721     0.00600
H495        H  0.65012340  0.36558180  0.79838329     0.14400
H496        H  0.65844172  0.37880438  0.89954759     0.14400
C497        C  0.54960611  0.55513818  0.84417612    -0.03800
C498        C  0.53500083  0.51934952  0.82485577    -0.00900
C499        C  0.55254352  0.48195021  0.82679936     0.04100
C500        C  0.58617185  0.48047130  0.84400616    -0.03800
C501        C  0.60170498  0.51716079  0.85861152    -0.00900
C502        C  0.58284074  0.55355907  0.86228687     0.04100
C503        C  0.96909365  0.53514126  0.81907717     0.38800
C504        C  0.63783982  0.51841931  0.86588718     0.38800
C505        C  0.59792583  0.58917223  0.88502646     0.37200
C506        C  0.53469778  0.44530585  0.81370965     0.37200
N507        N  0.61092474  0.61687716  0.90355614    -0.37600
N508        N  0.51873071  0.41718843  0.80372960    -0.37600
N509        N  0.66679666  0.52088069  0.87023566    -0.37100
N510        N  0.94030969  0.53443958  0.81227760    -0.37100
C511        C  0.57811062  0.38715263  0.65379643    -0.03800
C512        C  0.56891104  0.36392030  0.69860915    -0.00900
C513        C  0.57967930  0.37544175  0.74859337     0.04100
C514        C  0.59798558  0.41167961  0.75534531    -0.03800
C515        C  0.60414543  0.43717830  0.71187709    -0.00900
C516        C  0.59458386  0.42482680  0.66101606     0.04100
C517        C  0.54860240  0.32763063  0.69365385     0.38800
C518        C  0.62211719  0.47487084  0.71897579     0.38800
C519        C  0.60379891  0.44976069  0.61606788     0.37200
C520        C  0.57241665  0.34931438  0.79336379     0.37200
N521        N  0.61126811  0.46963629  0.58020980    -0.37600
N522        N  0.56668853  0.32857800  0.82905742    -0.37600
N523        N  0.63637357  0.50503759  0.72455998    -0.37100
N524        N  0.53246615  0.29868730  0.68973137    -0.37100
C525        C  0.66045101  0.27014342  0.50795199    -0.03800
C526        C  0.68524796  0.28302837  0.54297807    -0.00900
C527        C  0.71722444  0.26367080  0.54282825     0.04100
C528        C  0.72456083  0.23055265  0.50843438    -0.03800
C529        C  0.69898003  0.21602092  0.47575962    -0.00900
C530        C  0.66705911  0.23567196  0.47560931     0.04100
C531        C  0.67722848  0.31489070  0.58132428     0.38800
C532        C  0.70584371  0.18187289  0.44047972     0.38800
C533        C  0.64140081  0.22088899  0.44101918     0.37200
C534        C  0.74219276  0.27722350  0.57943246     0.37200
N535        N  0.62092863  0.20889166  0.41358608    -0.37600
N536        N  0.76208373  0.28804574  0.60863137    -0.37600
N537        N  0.71134366  0.15464378  0.41235891    -0.37100
N538        N  0.67058260  0.33996600  0.61220908    -0.37100
C539        C  0.47364964  0.28269974  0.50747693    -0.03800
C540        C  0.96672217  0.25690016  0.45980430    -0.00900
C541        C  0.93606053  0.23506048  0.46072156     0.04100
C542        C  0.90813501  0.24805945  0.49329852    -0.03800
C543        C  0.91102551  0.28372884  0.52401624    -0.00900
C544        C  0.94176741  0.30539415  0.52345863     0.04100
C545        C  0.49637989  0.23036385  0.44425724     0.38800
C546        C  0.88267372  0.29782018  0.55747101     0.38800
C547        C  0.45098640  0.33357004  0.57240798     0.37200
C548        C  0.93285072  0.20015262  0.42609193     0.37200
N549        N  0.45514760  0.36073929  0.60047719    -0.37600
N550        N  0.93019466  0.17249222  0.39827318    -0.37600
N551        N  0.86003165  0.30929555  0.58391016    -0.37100
N552        N  0.51877899  0.21570594  0.42013941    -0.37100
C553        C  0.84266696  0.13168723  0.35303391    -0.03800
C554        C  0.84749045  0.09012906  0.34007090    -0.00900
C555        C  0.85971307  0.07832653  0.28900596     0.04100
C556        C  0.86681627  0.10786061  0.25033555    -0.03800
C557        C  0.86206859  0.14935065  0.26335825    -0.00900
C558        C  0.85037213  0.16118190  0.31422659     0.04100
C559        C  0.83943870  0.05933062  0.37884594     0.38800
C560        C  0.86831287  0.18030956  0.22386103     0.38800
C561        C  0.84758367  0.20418722  0.32665742     0.37200
C562        C  0.86579621  0.03586421  0.27677009     0.37200
N563        N  0.84542552  0.23845328  0.33643338    -0.37600
N564        N  0.87071776  0.00191104  0.26736208    -0.37600
N565        N  0.87334011  0.20505597  0.19257716    -0.37100
N566        N  0.83303208  0.03469278  0.40973376    -0.37100
C567        C  0.77702315  0.99826000  0.17441708    -0.03800
C568        C  0.80902146  0.98548283  0.15427931    -0.00900
C569        C  0.83578814  0.01348815  0.14946498     0.04100
C570        C  0.83086503  0.05446169  0.16512076    -0.03800
C571        C  0.79917724  0.06669171  0.18751767    -0.00900
C572        C  0.77206132  0.03923955  0.18979773     0.04100
C573        C  0.81387500  0.94433035  0.13524937     0.38800
C574        C  0.79380750  0.10726494  0.20829839     0.38800
C575        C  0.73810090  0.05436778  0.20209183     0.37200
C576        C  0.86889476  0.99971358  0.13013820     0.37200
N577        N  0.71100795  0.06703557  0.21032955    -0.37600
N578        N  0.89528625  0.98814447  0.11518689    -0.37600
N579        N  0.78822601  0.13902975  0.22638698    -0.37100
N580        N  0.81833460  0.91185349  0.11879111    -0.37100
C581        C  0.61744687  0.44163936  0.94569822    -0.03800
C582        C  0.58597244  0.43608888  0.97312547    -0.00900
C583        C  0.58423587  0.43419852  0.02887195     0.04100
C584        C  0.61386122  0.43828010  0.05790060    -0.03800
C585        C  0.64476021  0.44730702  0.03062454    -0.00900
C586        C  0.64657697  0.44883511  0.97515531     0.04100
C587        C  0.55594158  0.42638417  0.94472775     0.38800
C588        C  0.67576422  0.45087268  0.05919621     0.38800
C589        C  0.67948209  0.45363685  0.94849350     0.37200
C590        C  0.55270494  0.42206612  0.05499238     0.37200
N591        N  0.70593324  0.45686071  0.92778658    -0.37600
N592        N  0.52707710  0.41156454  0.07354150    -0.37600
N593        N  0.70071405  0.45325114  0.08142685    -0.37100
N594        N  0.53121994  0.41782025  0.92450876    -0.37100
C595        C  0.57454215  0.38592537  0.35605693    -0.03800
C596        C  0.56057926  0.36366671  0.31443670    -0.00900
C597        C  0.56972305  0.37266956  0.26186079     0.04100
C598        C  0.58981670  0.40688292  0.24970247    -0.03800
C599        C  0.60038794  0.43217455  0.29092919    -0.00900
C600        C  0.59319548  0.42147539  0.34408780     0.04100
C601        C  0.53686848  0.33107786  0.32546013     0.38800
C602        C  0.62132759  0.46705423  0.27895820     0.38800
C603        C  0.60703881  0.44562020  0.38596567     0.37200
C604        C  0.56031996  0.34482895  0.22035483     0.37200
N605        N  0.61821543  0.46494073  0.41923862    -0.37600
N606        N  0.55307354  0.32254199  0.18729885    -0.37600
N607        N  0.63818972  0.49490022  0.27008123    -0.37100
N608        N  0.51776746  0.30533135  0.33424527    -0.37100
C609        C  0.99871173  0.62466775  0.05764607    -0.03800
C610        C  0.98291411  0.59119981  0.03393631    -0.00900
C611        C  0.98177835  0.58826952  0.97843873     0.04100
C612        C  0.99522328  0.61954273  0.94658866    -0.03800
C613        C  0.53711667  0.62900140  0.98057409    -0.00900
C614        C  0.53397288  0.62623894  0.03572927     0.04100
C615        C  0.96398506  0.56245821  0.06599368     0.38800
C616        C  0.55235668  0.66490114  0.95721102     0.38800
C617        C  0.54494574  0.65988760  0.06797237     0.37200
C618        C  0.96394269  0.55491798  0.95480209     0.37200
N619        N  0.55342454  0.68698844  0.09335574    -0.37600
N620        N  0.94943611  0.52790599  0.93737381    -0.37600
N621        N  0.56429684  0.69363482  0.93868797    -0.37100
N622        N  0.94793630  0.53931610  0.08988440    -0.37100
C623        C  0.57796010  0.47340293  0.16194592    -0.03800
C624        C  0.59403280  0.51054745  0.15052500    -0.00900
C625        C  0.57494701  0.54656729  0.14651230     0.04100
C626        C  0.54010257  0.54697763  0.16053446    -0.03800
C627        C  0.52421115  0.51030999  0.17490180    -0.00900
C628        C  0.54286347  0.47363059  0.17511225     0.04100
C629        C  0.63062682  0.51237375  0.14635635     0.38800
C630        C  0.48783761  0.50966790  0.18460000     0.38800
C631        C  0.52510737  0.43641470  0.18684246     0.37200
C632        C  0.59120784  0.58207881  0.12467134     0.37200
N633        N  0.50918884  0.40782177  0.19584524    -0.37600
N634        N  0.60550841  0.60905522  0.10562811    -0.37600
N635        N  0.45869348  0.50822889  0.19068283    -0.37100
N636        N  0.65982927  0.51507891  0.14485053    -0.37100
C637        C  0.83122605  0.10202974  0.95643195    -0.03800
C638        C  0.86126991  0.07931831  0.96306535    -0.00900
C639        C  0.87384223  0.07334550  0.01389463     0.04100
C640        C  0.85768100  0.09192333  0.05854303    -0.03800
C641        C  0.82901363  0.11679103  0.05134281    -0.00900
C642        C  0.81490052  0.12008909  0.00135933     0.04100
C643        C  0.88194348  0.06630453  0.91766551     0.38800
C644        C  0.81754746  0.14484152  0.09251724     0.38800
C645        C  0.78541572  0.14597781  0.99548344     0.37200
C646        C  0.90545369  0.05139066  0.01931838     0.37200
N647        N  0.76221362  0.16713573  0.99123513    -0.37600
N648        N  0.93098051  0.03442328  0.02300690    -0.37600
N649        N  0.80878984  0.16912645  0.12326323    -0.37100
N650        N  0.89985682  0.05621860  0.88286463    -0.37100
C651        C  0.82146009  0.12810207  0.65135294    -0.03800
C652        C  0.79100486  0.11621902  0.67776296    -0.00900
C653        C  0.78999450  0.11047914  0.73297543     0.04100
C654        C  0.81946926  0.11626234  0.76169119    -0.03800
C655        C  0.85052411  0.12466153  0.73426666    -0.00900
C656        C  0.85150884  0.13030567  0.67943126     0.04100
C657        C  0.76007240  0.11364167  0.64903870     0.38800
C658        C  0.88131747  0.12999041  0.76303285     0.38800
C659        C  0.88336428  0.14005829  0.65210119     0.37200
C660        C  0.75803181  0.10243185  0.76064842     0.37200
N661        N  0.90870994  0.14792958  0.63030247    -0.37600
N662        N  0.73232831  0.09620924  0.78235876    -0.37600
N663        N  0.90583422  0.13410788  0.78596272    -0.37100
N664        N  0.73539871  0.11175513  0.62604037    -0.37100
C665        C  0.76077853  0.92979834  0.97750767    -0.03800
C666        C  0.77448758  0.96456442  0.00133553    -0.00900
C667        C  0.75927521  0.98091923  0.04832836     0.04100
C668        C  0.73656863  0.95740625  0.07964824    -0.03800
C669        C  0.72474743  0.92070894  0.05764658    -0.00900
C670        C  0.73404710  0.90954137  0.00534243     0.04100
C671        C  0.80607543  0.98119972  0.98116668     0.38800
C672        C  0.70412622  0.89293347  0.08899713     0.38800
C673        C  0.71588039  0.87667938  0.98082598     0.37200
C674        C  0.76457162  0.02309814  0.06099495     0.37200
N675        N  0.70131528  0.85041686  0.96168015    -0.37600
N676        N  0.76792117  0.05726557  0.06964807    -0.37600
N677        N  0.68788938  0.87058066  0.11393367    -0.37100
N678        N  0.83188477  0.99360190  0.96582091    -0.37100
C679        C  0.80377586  0.05515171  0.85691614    -0.03800
C680        C  0.82391034  0.02426158  0.83315105    -0.00900
C681        C  0.81609260  0.98327488  0.84246559     0.04100
C682        C  0.78465820  0.97216418  0.86682244    -0.03800
C683        C  0.76193590  0.00341717  0.88350885    -0.00900
C684        C  0.77226069  0.04450730  0.88127475     0.04100
C685        C  0.85302527  0.03376978  0.79938870     0.38800
C686        C  0.72846013  0.99339653  0.90448395     0.38800
C687        C  0.75009592  0.07594797  0.90317431     0.37200
C688        C  0.84280850  0.95358557  0.83327149     0.37600
N689        N  0.73195623  0.10071485  0.92057168    -0.37600
N690        N  0.86559151  0.93168227  0.82681515    -0.37600
N691        N  0.70166230  0.98566364  0.92135789    -0.37100
N692        N  0.87626888  0.03910954  0.77126264    -0.37100
C693        C  0.78320390  0.90089208  0.78305188    -0.03800
C694        C  0.80963286  0.88096367  0.75328279    -0.00900
C695        C  0.80940103  0.87970141  0.69785740     0.04100
C696        C  0.78150775  0.89505785  0.67112910    -0.03800
C697        C  0.75503000  0.91491349  0.70026401    -0.00900
C698        C  0.75576775  0.91763919  0.75599482     0.04100
C699        C  0.83623101  0.85915865  0.77923567     0.38800
C700        C  0.72587140  0.92997059  0.67330053     0.38800
C701        C  0.72611318  0.93263824  0.78553182     0.37200
C702        C  0.83824725  0.86257509  0.66805413     0.37200
N703        N  0.70188539  0.94369905  0.80850353    -0.37600
N704        N  0.86151766  0.84949854  0.64445813    -0.37600
N705        N  0.70254434  0.94194481  0.65186429    -0.37100
N706        N  0.85730776  0.84118932  0.79944670    -0.37100
C707        C  0.74513523  0.95186184  0.27222654    -0.03800
C708        C  0.76515704  0.91633856  0.27466672    -0.00900
C709        C  0.77695380  0.90266369  0.32327994     0.04100
C710        C  0.76591860  0.92166312  0.37123397    -0.03800
C711        C  0.74621415  0.95763613  0.36880585    -0.00900
C712        C  0.73605962  0.97266919  0.31964619     0.04100
C713        C  0.76975841  0.89051514  0.22845364     0.38800
C714        C  0.73464763  0.97826428  0.41687700     0.38800
C715        C  0.71447577  0.00830676  0.31856053     0.37200
C716        C  0.80061589  0.86882518  0.32349987     0.37200
N717        N  0.69695199  0.03655529  0.31894118    -0.37600
N718        N  0.81976334  0.84211873  0.32347002    -0.37600
N719        N  0.72530018  0.99479743  0.45512623    -0.37100
N720        N  0.77240779  0.86890152  0.19242049    -0.37100
C721        C  0.00236794  0.62642615  0.75086580    -0.03800
C722        C  0.98038422  0.61564582  0.71049179    -0.00900
C723        C  0.99033186  0.62151668  0.65718768     0.04100
C724        C  0.02206470  0.63902969  0.64406614    -0.03800
C725        C  0.56242060  0.62978784  0.67313977    -0.00900
C726        C  0.55880257  0.62087494  0.72747078     0.04100
C727        C  0.94589853  0.60344767  0.72367400     0.38800
C728        C  0.59471196  0.64358341  0.65100952     0.38800
C729        C  0.58727155  0.62778760  0.76051380     0.37200
C730        C  0.96656796  0.61292694  0.61646135     0.37200
N731        N  0.61075685  0.63439444  0.78492830    -0.37600
N732        N  0.94757231  0.60606827  0.58404792    -0.37600
N733        N  0.62045488  0.65456677  0.63332257    -0.37100
N734        N  0.91806036  0.59470821  0.73354222    -0.37100
C735        C  0.52777739  0.62731019  0.36093806    -0.03800
C736        C  0.98458401  0.63781670  0.34741495    -0.00900
C737        C  0.97879943  0.62993016  0.29394068     0.04100
C738        C  0.51567972  0.60439994  0.25541408    -0.03800
C739        C  0.54565095  0.62507352  0.26773181    -0.00900
C740        C  0.55208308  0.63525764  0.32035540     0.04100
C741        C  0.95658740  0.63719416  0.38614083     0.38800
C742        C  0.56746444  0.64196277  0.22657807     0.38800
C743        C  0.58349861  0.65522520  0.33266005     0.37200
C744        C  0.94440938  0.62266393  0.27818849     0.37200
N745        N  0.60866543  0.67080065  0.34250156    -0.37600
N746        N  0.91687235  0.61723510  0.26593605    -0.37600
N747        N  0.58520525  0.65758616  0.19584039    -0.37100
N748        N  0.93430169  0.63660118  0.41705186    -0.37100
C749        C  0.68346256  0.80104697  0.51287209    -0.03800
C750        C  0.66552834  0.79087457  0.55997166    -0.00900
C751        C  0.63410316  0.77066587  0.55821757     0.04100
C752        C  0.62051839  0.76022070  0.50918155    -0.03800
C753        C  0.63807908  0.77179089  0.46212130    -0.00900
C754        C  0.66954921  0.79168886  0.46400685     0.04100
C755        C  0.68011719  0.79981904  0.61026017     0.38800
C756        C  0.62291046  0.76541601  0.41166053     0.38800
C757        C  0.68730073  0.80356107  0.41554021     0.37200
C758        C  0.61625075  0.75987902  0.60699817     0.37200
N759        N  0.70152752  0.81314867  0.37702043    -0.37600
N760        N  0.60192249  0.75150510  0.64593859    -0.37600
N761        N  0.61068362  0.76097990  0.37138411    -0.37100
N762        N  0.69191116  0.80678417  0.65030418    -0.37100
C763        C  0.93809028  0.77238470  0.51651428    -0.03800
C764        C  0.93152039  0.80269720  0.47884006    -0.00900
C765        C  0.89886313  0.82043357  0.47642175     0.04100
C766        C  0.87223810  0.80806534  0.51124776    -0.03800
C767        C  0.87883986  0.77838481  0.54941749    -0.00900
C768        C  0.91167446  0.76158573  0.55305733     0.04100
C769        C  0.95791677  0.81515999  0.44124992     0.38800
C770        C  0.85192817  0.76542272  0.58590540     0.38800
C771        C  0.91833916  0.73429910  0.59605443     0.37200
C772        C  0.89218605  0.84979565  0.43584643     0.37200
N773        N  0.92362290  0.71286147  0.63065454    -0.37600
N774        N  0.88681061  0.87301147  0.40327512    -0.37600
N775        N  0.83046282  0.75503452  0.61491043    -0.37100
N776        N  0.97893947  0.82526712  0.41129114    -0.37100
loop_ 
_geom_bond_atom_site_label_1 
_geom_bond_atom_site_label_2 
_geom_bond_distance 
_geom_bond_site_symmetry_2 
_ccdc_geom_bond_type 
In1           O3   2.221       .  S
In1          O12   2.246       .  S
In1           O6   2.265       .  S
In1          O13   2.227       .  S
In1         O392   2.274       .  S
In1         O396   2.263       .  S
In1         O397   2.271       .  S
In1         O398   2.248       .  S
C2            O8   1.260       .  A
C2           O10   1.260       .  A
C2          C364   1.495       .  S
O3           C11   1.258       .  A
O4         In389   2.261       .  S
O4          C399   1.259       .  A
C5           O12   1.259       .  A
C5            O6   1.262       .  A
C5          C375   1.495       .  S
C7            O9   1.263       .  A
C7          O401   1.259       .  A
C7          C347   1.480       .  S
O8         In389   2.264       .  S
O9         In389   2.262       .  S
O10        In389   2.256       .  S
C11         O392   1.261       .  A
C11         C336   1.482       .  S
O13         C395   1.260       .  A
In14         O16   2.217       .  S
In14         O17   2.269       .  S
In14         O25   2.258       .  S
In14         O19   2.236       .  S
In14         O21   2.256       .  S
In14         O22   2.273       .  S
In14         O23   2.251       .  S
In14         O26   2.232       .  S
C15          O21   1.261       .  A
C15          O23   1.259       .  A
C15         C361   1.487       .  S
O16          C24   1.259       .  A
O17          C24   1.266       .  A
C18          O25   1.263       .  A
C18          O19   1.262       .  A
C18         C378   1.493       .  S
C20          O22   1.264       .  A
C20          O26   1.259       .  A
C20         C322   1.497       .  S
C24         C308   1.483       .  S
N27          C31   1.373       .  A
N27          C28   1.369       .  A
N27         C294   1.455       .  S
C28         C305   1.504       .  S
C28          C29   1.380       .  A
C29          C30   1.366       .  A
C29          H32   1.082       .  S
C30          C31   1.386       .  A
C30          H33   1.083       .  S
C31         C277   1.512       .  S
N34          C38   1.363       .  A
N34          C35   1.363       .  A
N34         C291   1.451       .  S
C35         C266   1.486       .  S
C35          C36   1.383       .  A
C36          C37   1.365       .  A
C36          H39   1.083       .  S
C37          C38   1.380       .  A
C37          H40   1.082       .  S
C38         C249   1.491       .  S
N41          C45   1.361   1_455  A
N41          C42   1.364   1_455  A
N41         C238   1.447       .  S
C42         C350   1.495   1_655  S
C42         C431   1.383       .  A
C43          C44   1.371       .  A
C43         C430   1.381       .  A
C43          H46   1.082       .  S
C44         C433   1.382       .  A
C44          H47   1.082       .  S
C45         C609   1.488       .  S
C45         C432   1.381       .  A
N48          C52   1.365       .  A
N48          C49   1.364       .  A
N48         C235   1.454       .  S
C49         C210   1.484       .  S
C49          C50   1.381       .  A
C50          C51   1.364       .  A
C50          H53   1.083       .  S
C51          C52   1.381       .  A
C51          H54   1.082       .  S
C52         C196   1.494       .  S
N55          C59   1.368       .  A
N55          C56   1.362       .  A
N55         C179   1.447       .  S
C56         C319   1.498       .  S
C56          C57   1.377       .  A
C57          C58   1.374       .  A
C57          H60   1.082       .  S
C58          C59   1.389       .  A
C58          H61   1.082       .  S
C59         C280   1.517       .  S
N62          C66   1.361       .  A
N62          C63   1.360       .  A
N62         C182   1.449       .  S
C63         C168   1.487       .  S
C63          C64   1.383       .  A
C64          C65   1.371       .  A
C64          H67   1.082       .  S
C65          C66   1.380       .  A
C65          H68   1.082       .  S
C66         C252   1.492       .  S
In69         O71   2.224       .  S
In69         O72   2.271       .  S
In69         O80   2.257       .  S
In69         O74   2.242       .  S
In69         O76   2.246       .  S
In69         O77   2.274       .  S
In69         O78   2.256       .  S
In69         O81   2.223       .  S
C70          O76   1.258       .  A
C70          O78   1.261       .  A
C70         C151   1.494   1_455  S
O71          C79   1.258       .  A
O72          C79   1.261       .  A
C73          O80   1.262       .  A
C73          O74   1.259       .  A
C73         C137   1.496       .  S
C75          O77   1.261       .  A
C75          O81   1.259       .  A
C75         C207   1.497       .  S
C79         C123   1.488       .  S
In82         O84   2.222       .  S
In82         O85   2.264       .  S
In82         O93   2.244       .  S
In82         O87   2.254       .  S
In82         O89   2.258       .  S
In82         O90   2.268       .  S
In82         O91   2.251       .  S
In82         O94   2.224       .  S
C83          O89   1.262       .  A
C83          O91   1.262       .  A
C83         C154   1.498       .  S
O84          C92   1.260       .  A
O85          C92   1.262       .  A
C86          O93   1.260       .  A
C86          O87   1.261       .  A
C86         C140   1.496       .  S
C88          O90   1.262       .  A
C88          O94   1.260       .  A
C88         C165   1.492       .  S
C92         C263   1.481       .  S
N95         C487   1.357   1_455  A
N95         C484   1.358   1_455  A
N95         C109   1.445       .  S
C96         C333   1.492       .  S
C96         N483   1.364       .  A
C96          C97   1.382       .  A
C97          C98   1.367       .  A
C97         H100   1.083       .  S
C98          C99   1.382       .  A
C98         H101   1.082       .  S
C99         C224   1.491       .  S
C99         N483   1.362       .  A
N102        C106   1.363       .  A
N102        C103   1.363       .  A
N102        C112   1.450       .  S
C103        C126   1.487       .  S
C103        C104   1.383       .  A
C104        C105   1.366       .  A
C104        H107   1.083       .  S
C105        C106   1.380       .  A
C105        H108   1.082       .  S
C106        C193   1.492       .  S
C109        C110   1.411       .  A
C109        C114   1.406       .  A
C110        C111   1.413       .  A
C110        C503   1.448   1_455  S
C111        C112   1.412       .  A
C111        C118   1.446       .  S
C112        C113   1.413       .  A
C113        C114   1.409       .  A
C113        C116   1.447       .  S
C114        C117   1.445       .  S
C115        C498   1.447       .  S
C115        N122   1.156       .  T
C116        N121   1.157       .  T
C117        N119   1.157       .  T
C118        N120   1.157   1_455  T
C123        C124   1.412       .  A
C123        C128   1.416       .  A
C124        C125   1.405       .  A
C124        C129   1.453       .  S
C125        C126   1.415       .  A
C125        C132   1.454       .  S
C126        C127   1.412       .  A
C127        C128   1.417       .  A
C127        C130   1.449       .  S
C128        C131   1.450       .  S
C129        N136   1.157       .  T
C130        N135   1.157       .  T
C131        N133   1.157       .  T
C132        N134   1.157       .  T
C137        C138   1.415       .  A
C137        C142   1.418       .  A
C138        C139   1.413       .  A
C138        C143   1.452       .  S
C139        C140   1.417       .  A
C139        C146   1.452       .  S
C140        C141   1.417       .  A
C141        C142   1.413       .  A
C141        C144   1.453       .  S
C142        C145   1.452       .  S
C143        N150   1.157       .  T
C144        N149   1.158       .  T
C145        N147   1.158       .  T
C146        N148   1.157       .  T
C151        C540   1.417       .  A
C151        C544   1.416       .  A
C152        C153   1.413       .  A
C152        C539   1.416       .  A
C152        C545   1.452       .  S
C153        C154   1.416       .  A
C153        C160   1.452       .  S
C154        C155   1.417       .  A
C155        C156   1.416       .  A
C155        C158   1.451       .  S
C156        C539   1.415       .  A
C156        C547   1.452       .  S
C157        C540   1.452       .  S
C157        N164   1.158   1_655  T
C158        N163   1.157       .  T
C159        C544   1.452       .  S
C159        N161   1.157       .  T
C160        N162   1.157       .  T
C165        C166   1.418       .  A
C165        C170   1.415       .  A
C166        C167   1.417       .  A
C166        C171   1.450       .  S
C167        C168   1.409       .  A
C167        C174   1.449       .  S
C168        C169   1.414       .  A
C169        C170   1.406       .  A
C169        C172   1.454       .  S
C170        C173   1.453       .  S
C171        N178   1.157       .  T
C172        N177   1.157       .  T
C173        N175   1.157       .  T
C174        N176   1.157       .  T
C179        C180   1.407       .  A
C179        C184   1.416   1_565  A
C180        C181   1.414   1_565  A
C180        C185   1.446       .  S
C181        C182   1.415       .  A
C181        C188   1.447       .  S
C182        C183   1.409       .  A
C183        C184   1.409       .  A
C183        C186   1.446       .  S
C184        C187   1.450       .  S
C185        N192   1.157       .  T
C186        N191   1.157       .  T
C187        N189   1.157       .  T
C188        N190   1.157       .  T
C193        C194   1.414       .  A
C193        C198   1.413       .  A
C194        C195   1.416   1_556  A
C194        C199   1.450       .  S
C195        C196   1.415       .  A
C195        C202   1.449       .  S
C196        C197   1.416       .  A
C197        C198   1.408   1_554  A
C197        C200   1.452       .  S
C198        C201   1.453       .  S
C199        N206   1.157       .  T
C200        N205   1.157       .  T
C201        N203   1.157       .  T
C202        N204   1.157       .  T
C207        C208   1.416       .  A
C207        C212   1.422       .  A
C208        C209   1.404       .  A
C208        C213   1.453       .  S
C209        C210   1.413       .  A
C209        C216   1.455       .  S
C210        C211   1.408       .  A
C211        C212   1.418       .  A
C211        C214   1.450       .  S
C212        C215   1.450       .  S
C213        N220   1.157       .  T
C214        N219   1.157       .  T
C215        N217   1.158       .  T
C216        N218   1.157       .  T
C221        C433   1.486       .  S
C221        C222   1.410       .  A
C221        C614   1.412       .  A
C222        C223   1.415   1_554  A
C222        C227   1.449       .  S
C223        C224   1.414       .  A
C223        C230   1.448       .  S
C224        C613   1.415       .  A
C225        C226   1.406   1_556  A
C225        C612   1.413   1_455  A
C225        C228   1.453       .  S
C226        C609   1.414   1_455  A
C226        C229   1.453       .  S
C227        N234   1.157       .  T
C228        N233   1.157       .  T
C229        N231   1.157       .  T
C230        N232   1.157       .  T
C235        C236   1.414       .  A
C235        C240   1.416       .  A
C236        C237   1.410       .  A
C236        C241   1.447       .  S
C237        C238   1.409       .  A
C237        C244   1.447       .  S
C238        C239   1.409       .  A
C239        C240   1.413       .  A
C239        C242   1.448   1_455  S
C240        C243   1.445       .  S
C241        N248   1.157       .  T
C242        N247   1.157       .  T
C243        N245   1.157   1_455  T
C244        N246   1.157       .  T
C249        C250   1.414       .  A
C249        C254   1.412       .  A
C250        C251   1.414       .  A
C250        C255   1.447       .  S
C251        C252   1.412   1_556  A
C251        C258   1.451   1_556  S
C252        C253   1.413       .  A
C253        C254   1.410   1_554  A
C253        C256   1.448       .  S
C254        C257   1.452       .  S
C255        N262   1.156       .  T
C256        N261   1.156       .  T
C257        N259   1.157       .  T
C258        N260   1.157       .  T
C263        C264   1.414       .  A
C263        C268   1.409       .  A
C264        C265   1.417       .  A
C264        C269   1.450       .  S
C265        C266   1.411       .  A
C265        C272   1.449       .  S
C266        C267   1.417       .  A
C267        C268   1.406       .  A
C267        C270   1.453       .  S
C268        C271   1.454       .  S
C269        N276   1.157       .  T
C270        N275   1.157       .  T
C271        N273   1.158       .  T
C272        N274   1.157       .  T
C277        C278   1.413       .  A
C277        C282   1.420       .  A
C278        C279   1.417   1_556  A
C278        C283   1.443       .  S
C279        C280   1.414       .  A
C279        C286   1.439   1_565  S
C280        C281   1.421       .  A
C281        C282   1.411   1_554  A
C281        C284   1.452       .  S
C282        C285   1.454       .  S
C283        N290   1.156       .  T
C284        N289   1.158       .  T
C285        N287   1.157       .  T
C286        N288   1.155       .  T
C291        C292   1.405       .  A
C291        C296   1.414       .  A
C292        C293   1.411   1_545  A
C292        C297   1.446       .  S
C293        C294   1.418       .  A
C293        C300   1.447       .  S
C294        C295   1.412       .  A
C295        C296   1.415   1_565  A
C295        C298   1.448       .  S
C296        C299   1.447       .  S
C297        N304   1.157       .  T
C298        N303   1.157       .  T
C299        N301   1.157       .  T
C300        N302   1.157       .  T
C305        C306   1.422       .  A
C305        C310   1.419       .  A
C306        C307   1.410       .  A
C306        C311   1.452       .  S
C307        C308   1.408       .  A
C307        C314   1.453       .  S
C308        C309   1.408       .  A
C309        C310   1.416       .  A
C309        C312   1.451       .  S
C310        C313   1.447       .  S
C311        N318   1.158       .  T
C312        N317   1.157       .  T
C313        N315   1.157       .  T
C314        N316   1.157       .  T
C319        C320   1.413       .  A
C319        C324   1.416       .  A
C320        C321   1.412       .  A
C320        C325   1.450       .  S
C321        C322   1.415       .  A
C321        C328   1.452       .  S
C322        C323   1.415       .  A
C323        C324   1.417       .  A
C323        C326   1.451       .  S
C324        C327   1.449       .  S
C325        N332   1.157       .  T
C326        N331   1.158       .  T
C327        N329   1.157   1_565  T
C328        N330   1.157       .  T
C333        C334   1.417       .  A
C333        C726   1.417       .  A
C334        C335   1.407       .  A
C334        C339   1.451       .  S
C335        C336   1.407       .  A
C335        C342   1.452       .  S
C336        C725   1.410       .  A
C337        C338   1.407       .  A
C337        C724   1.409       .  A
C337        C340   1.452       .  S
C338        C721   1.413       .  A
C338        C341   1.448       .  S
C339        N346   1.157       .  T
C340        N345   1.157       .  T
C341        N343   1.157       .  T
C342        N344   1.157       .  T
C347        C352   1.407       .  A
C347        C736   1.407   1_455  A
C348        C349   1.414       .  A
C348        C735   1.411       .  A
C348        C353   1.451       .  S
C349        C738   1.417       .  A
C349        C356   1.450       .  S
C350        C351   1.417       .  A
C350        C737   1.419   1_455  A
C351        C352   1.414       .  A
C351        C354   1.446       .  S
C352        C355   1.452       .  S
C353        N360   1.157       .  T
C354        N359   1.156       .  T
C355        N357   1.157       .  T
C356        N358   1.157       .  T
C361        C362   1.412       .  A
C361        C366   1.412       .  A
C362        C363   1.415       .  A
C362        C367   1.452       .  S
C363        C364   1.418       .  A
C363        C370   1.451       .  S
C364        C365   1.416       .  A
C365        C366   1.413       .  A
C365        C368   1.450       .  S
C366        C369   1.452       .  S
C367        N374   1.158       .  T
C368        N373   1.157       .  T
C369        N371   1.157       .  T
C370        N372   1.157       .  T
C375        C376   1.416       .  A
C375        C380   1.415       .  A
C376        C377   1.416       .  A
C376        C381   1.451       .  S
C377        C378   1.415       .  A
C377        C384   1.451       .  S
C378        C379   1.416       .  A
C379        C380   1.411       .  A
C379        C382   1.453       .  S
C380        C383   1.452       .  S
C381        N388   1.157       .  T
C382        N387   1.157       .  T
C383        N385   1.157       .  T
C384        N386   1.157       .  T
In389       O391   2.228       .  S
In389       O400   2.244   1_455  S
In389       O394   2.268   1_455  S
In389       O401   2.228       .  S
C390        O396   1.261       .  A
C390        O398   1.260       .  A
C390        C752   1.493       .  S
O391        C399   1.258       .  A
C393        O400   1.260       .  A
C393        O394   1.264       .  A
C393        C763   1.504       .  S
C395        O397   1.261       .  A
C395        C735   1.487       .  S
C399        C724   1.484       .  S
In402       O404   2.224       .  S
In402       O405   2.287       .  S
In402       O413   2.261       .  S
In402       O407   2.248       .  S
In402       O409   2.252       .  S
In402       O410   2.283       .  S
In402       O411   2.256       .  S
In402       O414   2.242       .  S
C403        O409   1.261       .  A
C403        O411   1.260       .  A
C403        C749   1.484       .  S
O404        C412   1.259       .  A
O405        C412   1.266       .  A
C406        O413   1.263       .  A
C406        O407   1.262       .  A
C406        C766   1.494       .  S
C408        O410   1.266       .  A
C408        O414   1.260       .  A
C408        C710   1.507       .  S
C412        C696   1.491       .  S
N415        C419   1.374       .  A
N415        C416   1.370       .  A
N415        C682   1.458       .  S
C416        C693   1.504       .  S
C416        C417   1.379       .  A
C417        C418   1.366       .  A
C417        H420   1.082       .  S
C418        C419   1.386       .  A
C418        H421   1.082       .  S
C419        C665   1.513       .  S
N422        C426   1.366       .  A
N422        C423   1.364       .  A
N422        C679   1.454       .  S
C423        C654   1.489       .  S
C423        C424   1.382       .  A
C424        C425   1.365       .  A
C424        H427   1.083       .  S
C425        C426   1.381       .  A
C425        H428   1.083       .  S
C426        C637   1.495       .  S
N429        C433   1.358       .  A
N429        C430   1.363       .  A
N429        C626   1.446       .  S
C430        C738   1.491       .  S
C431        C432   1.368       .  A
C431        H434   1.082       .  S
C432        H435   1.083       .  S
N436        C440   1.365       .  A
N436        C437   1.363       .  A
N436        C623   1.451       .  S
C437        C598   1.488       .  S
C437        C438   1.381       .  A
C438        C439   1.367       .  A
C438        H441   1.083       .  S
C439        C440   1.382       .  A
C439        H442   1.082       .  S
C440        C584   1.497       .  S
N443        C447   1.363       .  A
N443        C444   1.362       .  A
N443        C567   1.443       .  S
C444        C707   1.501       .  S
C444        C445   1.379       .  A
C445        C446   1.377       .  A
C445        H448   1.082       .  S
C446        C447   1.389       .  A
C446        H449   1.082       .  S
C447        C668   1.513       .  S
N450        C454   1.360       .  A
N450        C451   1.358       .  A
N450        C570   1.447       .  S
C451        C556   1.494       .  S
C451        C452   1.385       .  A
C452        C453   1.376       .  A
C452        H455   1.082       .  S
C453        C454   1.381       .  A
C453        H456   1.082       .  S
C454        C640   1.497       .  S
In457       O459   2.218       .  S
In457       O460   2.269       .  S
In457       O468   2.246       .  S
In457       O462   2.253       .  S
In457       O464   2.246       .  S
In457       O465   2.276       .  S
In457       O466   2.261       .  S
In457       O469   2.226       .  S
C458        O464   1.259       .  A
C458        O466   1.261       .  A
C458        C539   1.495       .  S
O459        C467   1.259       .  A
O460        C467   1.263       .  A
C461        O468   1.262       .  A
C461        O462   1.261       .  A
C461        C525   1.490       .  S
C463        O465   1.261       .  A
C463        O469   1.259       .  A
C463        C595   1.495       .  S
C467        C511   1.495       .  S
In470       O472   2.225       .  S
In470       O473   2.275       .  S
In470       O481   2.249       .  S
In470       O475   2.241       .  S
In470       O477   2.252       .  S
In470       O478   2.268       .  S
In470       O479   2.238       .  S
In470       O482   2.226       .  S
C471        O477   1.264       .  A
C471        O479   1.262       .  A
C471        C542   1.492       .  S
O472        C480   1.257       .  A
O473        C480   1.262       .  A
C474        O481   1.263       .  A
C474        O475   1.262       .  A
C474        C528   1.491       .  S
C476        O478   1.263       .  A
C476        O482   1.259       .  A
C476        C553   1.495       .  S
C480        C651   1.485       .  S
N483        C497   1.447       .  S
C484        C721   1.486   1_655  S
C484        C485   1.380       .  A
C485        C486   1.372       .  A
C485        H488   1.082       .  S
C486        C487   1.384       .  A
C486        H489   1.082       .  S
C487        C612   1.486       .  S
N490        C494   1.367       .  A
N490        C491   1.365       .  A
N490        C500   1.454       .  S
C491        C514   1.489       .  S
C491        C492   1.381       .  A
C492        C493   1.366       .  A
C492        H495   1.083       .  S
C493        C494   1.382       .  A
C493        H496   1.083       .  S
C494        C581   1.500       .  S
C497        C498   1.411       .  A
C497        C502   1.408       .  A
C498        C499   1.413       .  A
C499        C500   1.415       .  A
C499        C506   1.446       .  S
C500        C501   1.414       .  A
C501        C502   1.410       .  A
C501        C504   1.447       .  S
C502        C505   1.447       .  S
C503        N510   1.157       .  T
C504        N509   1.157       .  T
C505        N507   1.157       .  T
C506        N508   1.157       .  T
C511        C512   1.416       .  A
C511        C516   1.421       .  A
C512        C513   1.405       .  A
C512        C517   1.453       .  S
C513        C514   1.414       .  A
C513        C520   1.454       .  S
C514        C515   1.409       .  A
C515        C516   1.418       .  A
C515        C518   1.450       .  S
C516        C519   1.450       .  S
C517        N524   1.157       .  T
C518        N523   1.157       .  T
C519        N521   1.158       .  T
C520        N522   1.157       .  T
C525        C526   1.414       .  A
C525        C530   1.415       .  A
C526        C527   1.411       .  A
C526        C531   1.453       .  S
C527        C528   1.415       .  A
C527        C534   1.452       .  S
C528        C529   1.416       .  A
C529        C530   1.414       .  A
C529        C532   1.452       .  S
C530        C533   1.451       .  S
C531        N538   1.158       .  T
C532        N537   1.158       .  T
C533        N535   1.157       .  T
C534        N536   1.157       .  T
C540        C541   1.413       .  A
C541        C542   1.415       .  A
C541        C548   1.453       .  S
C542        C543   1.415       .  A
C543        C544   1.413       .  A
C543        C546   1.451       .  S
C545        N552   1.157       .  T
C546        N551   1.157       .  T
C547        N549   1.158       .  T
C548        N550   1.158       .  T
C553        C554   1.418       .  A
C553        C558   1.418       .  A
C554        C555   1.418       .  A
C554        C559   1.450       .  S
C555        C556   1.412       .  A
C555        C562   1.449       .  S
C556        C557   1.415       .  A
C557        C558   1.407       .  A
C557        C560   1.454       .  S
C558        C561   1.454       .  S
C559        N566   1.157       .  T
C560        N565   1.157       .  T
C561        N563   1.158       .  T
C562        N564   1.157       .  T
C567        C568   1.406       .  A
C567        C572   1.415   1_565  A
C568        C569   1.411   1_565  A
C568        C573   1.447       .  S
C569        C570   1.416       .  A
C569        C576   1.448   1_545  S
C570        C571   1.410       .  A
C571        C572   1.407       .  A
C571        C574   1.446       .  S
C572        C575   1.450       .  S
C573        N580   1.157       .  T
C574        N579   1.157       .  T
C575        N577   1.157       .  T
C576        N578   1.157       .  T
C581        C582   1.415       .  A
C581        C586   1.417       .  A
C582        C583   1.418   1_556  A
C582        C587   1.448       .  S
C583        C584   1.414       .  A
C583        C590   1.449       .  S
C584        C585   1.415       .  A
C585        C586   1.410   1_554  A
C585        C588   1.452       .  S
C586        C589   1.453       .  S
C587        N594   1.156       .  T
C588        N593   1.157       .  T
C589        N591   1.157       .  T
C590        N592   1.157       .  T
C595        C596   1.414       .  A
C595        C600   1.418       .  A
C596        C597   1.405       .  A
C596        C601   1.453       .  S
C597        C598   1.414       .  A
C597        C604   1.454       .  S
C598        C599   1.411       .  A
C599        C600   1.418       .  A
C599        C602   1.449       .  S
C600        C603   1.450       .  S
C601        N608   1.157       .  T
C602        N607   1.157       .  T
C603        N605   1.157       .  T
C604        N606   1.157       .  T
C609        C610   1.414       .  A
C610        C611   1.415   1_554  A
C610        C615   1.448       .  S
C611        C612   1.411       .  A
C611        C618   1.449       .  S
C613        C614   1.406   1_556  A
C613        C616   1.453       .  S
C614        C617   1.453       .  S
C615        N622   1.157       .  T
C616        N621   1.157       .  T
C617        N619   1.157       .  T
C618        N620   1.157       .  T
C623        C624   1.411       .  A
C623        C628   1.413       .  A
C624        C625   1.410       .  A
C624        C629   1.447       .  S
C625        C626   1.408       .  A
C625        C632   1.445       .  S
C626        C627   1.411       .  A
C627        C628   1.413       .  A
C627        C630   1.449       .  S
C628        C631   1.446       .  S
C629        N636   1.157       .  T
C630        N635   1.157       .  T
C631        N633   1.157       .  T
C632        N634   1.157       .  T
C637        C638   1.416       .  A
C637        C642   1.415   1_556  A
C638        C639   1.417   1_556  A
C638        C643   1.448       .  S
C639        C640   1.414       .  A
C639        C646   1.451       .  S
C640        C641   1.412       .  A
C641        C642   1.412       .  A
C641        C644   1.449       .  S
C642        C645   1.453   1_554  S
C643        N650   1.156       .  T
C644        N649   1.156       .  T
C645        N647   1.157       .  T
C646        N648   1.157       .  T
C651        C652   1.414       .  A
C651        C656   1.410       .  A
C652        C653   1.417       .  A
C652        C657   1.450       .  S
C653        C654   1.411       .  A
C653        C660   1.448       .  S
C654        C655   1.417       .  A
C655        C656   1.407       .  A
C655        C658   1.454       .  S
C656        C659   1.453       .  S
C657        N664   1.157       .  T
C658        N663   1.157       .  T
C659        N661   1.157       .  T
C660        N662   1.157       .  T
C665        C666   1.413   1_556  A
C665        C670   1.422   1_556  A
C666        C667   1.417       .  A
C666        C671   1.444   1_554  S
C667        C668   1.416       .  A
C667        C674   1.444   1_565  S
C668        C669   1.419       .  A
C669        C670   1.411       .  A
C669        C672   1.453       .  S
C670        C673   1.453   1_554  S
C671        N678   1.156       .  T
C672        N677   1.158       .  T
C673        N675   1.158       .  T
C674        N676   1.156       .  T
C679        C680   1.406       .  A
C679        C684   1.416       .  A
C680        C681   1.409   1_545  A
C680        C685   1.446       .  S
C681        C682   1.418       .  A
C681        C688   1.446       .  S
C682        C683   1.414   1_565  A
C683        C684   1.420       .  A
C683        C686   1.448   1_545  S
C684        C687   1.447       .  S
C685        N692   1.157       .  T
C686        N691   1.157       .  T
C687        N689   1.157       .  T
C688        N690   1.156       .  T
C693        C694   1.420       .  A
C693        C698   1.417       .  A
C694        C695   1.409       .  A
C694        C699   1.452       .  S
C695        C696   1.410       .  A
C695        C702   1.452       .  S
C696        C697   1.412       .  A
C697        C698   1.420       .  A
C697        C700   1.450       .  S
C698        C701   1.449       .  S
C699        N706   1.158       .  T
C700        N705   1.157       .  T
C701        N703   1.157       .  T
C702        N704   1.157       .  T
C707        C708   1.413       .  A
C707        C712   1.415       .  A
C708        C709   1.414       .  A
C708        C713   1.450       .  S
C709        C710   1.418       .  A
C709        C716   1.452       .  S
C710        C711   1.418       .  A
C711        C712   1.419       .  A
C711        C714   1.450       .  S
C712        C715   1.449   1_565  S
C713        N720   1.157       .  T
C714        N719   1.157       .  T
C715        N717   1.157       .  T
C716        N718   1.157       .  T
C721        C722   1.414   1_455  A
C722        C723   1.411       .  A
C722        C727   1.450       .  S
C723        C724   1.413   1_655  A
C723        C730   1.451       .  S
C725        C726   1.416       .  A
C725        C728   1.452       .  S
C726        C729   1.447       .  S
C727        N734   1.157       .  T
C728        N733   1.157       .  T
C729        N731   1.157       .  T
C730        N732   1.157       .  T
C735        C740   1.409       .  A
C736        C737   1.409       .  A
C736        C741   1.452       .  S
C737        C744   1.452       .  S
C738        C739   1.414       .  A
C739        C740   1.409       .  A
C739        C742   1.447       .  S
C740        C743   1.452       .  S
C741        N748   1.157       .  T
C742        N747   1.156       .  T
C743        N745   1.157       .  T
C744        N746   1.157       .  T
C749        C750   1.411       .  A
C749        C754   1.410       .  A
C750        C751   1.415       .  A
C750        C755   1.451       .  S
C751        C752   1.417       .  A
C751        C758   1.451       .  S
C752        C753   1.416       .  A
C753        C754   1.412       .  A
C753        C756   1.451       .  S
C754        C757   1.452       .  S
C755        N762   1.157       .  T
C756        N761   1.157       .  T
C757        N759   1.157       .  T
C758        N760   1.157       .  T
C763        C764   1.420       .  A
C763        C768   1.419       .  A
C764        C765   1.417       .  A
C764        C769   1.451       .  S
C765        C766   1.413       .  A
C765        C772   1.451       .  S
C766        C767   1.414       .  A
C767        C768   1.414       .  A
C767        C770   1.452       .  S
C768        C771   1.453       .  S
C769        N776   1.157       .  T
C770        N775   1.157       .  T
C771        N773   1.158       .  T
C772        N774   1.157       .  T
