geometry optimzed in LAMMPS
_audit_creation_date              2020-11-30 
_audit_creation_method            'lammps2cif' 
_symmetry_space_group_name_H-M    'P1' 
_symmetry_Int_Tables_number       1 
_symmetry_cell_setting            triclinic 
loop_ 
_symmetry_equiv_pos_as_xyz 
  x,y,z 
_cell_length_a                    31.85185132 
_cell_length_b                    31.833827133579977 
_cell_length_c                    31.883541709858438 
_cell_angle_alpha                 89.99813428759678 
_cell_angle_beta                  89.84591349939518 
_cell_angle_gamma                 89.56051939467125 
loop_ 
_atom_site_label 
_atom_site_type_symbol 
_atom_site_fract_x 
_atom_site_fract_y 
_atom_site_fract_z 
_atom_site_charge 
C1          C  0.66066872  0.13971421  0.80265243     0.79500
N2          N  0.66380959  0.18071605  0.81375784    -0.78800
C3          C  0.66579425  0.19258301  0.85446811     0.82000
N4          N  0.66483846  0.16289492  0.88495125    -0.78700
C5          C  0.66154400  0.12163756  0.87447830     0.82100
N6          N  0.65988045  0.11001185  0.83337616    -0.75700
C7          C  0.91241535  0.12329493  0.55054237     0.79500
N8          N  0.92195090  0.16483835  0.55196848    -0.78800
C9          C  0.96256233  0.17770709  0.55354087     0.82000
N10         N  0.99375417  0.14835988  0.55381059    -0.78700
C11         C  0.98445199  0.10684282  0.55219636     0.82100
N12         N  0.94390200  0.09438737  0.55065712    -0.80500
C13         C  0.93280595  0.44970139  0.85385058     0.79500
N14         N  0.96373213  0.45014547  0.88301737    -0.78800
C15         C  0.00456022  0.44978415  0.87083500     0.82000
N16         N  0.01455867  0.44860112  0.82944190    -0.78700
C17         C  0.98366470  0.44849608  0.80012853     0.82100
N18         N  0.94287344  0.44906364  0.81249726    -0.80500
C19         C  0.75689400  0.42006983  0.88136683     0.79500
N20         N  0.72608849  0.44967839  0.88251933    -0.78800
C21         C  0.68518024  0.43819970  0.88372926     0.82000
N22         N  0.67470835  0.39690185  0.88395456    -0.78700
C23         C  0.70529384  0.36698223  0.88250287     0.82100
N24         N  0.74611634  0.37887653  0.88110237    -0.80500
C25         C  0.00153706  0.40973511  0.62490318     0.79500
N26         N  0.99637653  0.36850728  0.61569278    -0.78800
C27         C  0.99535949  0.35510089  0.57532607     0.82000
N28         N  0.99954950  0.38339158  0.54361364    -0.78700
C29         C  0.00484008  0.42482097  0.55269097     0.82100
N30         N  0.00549476  0.43786657  0.59322295    -0.80500
C31         C  0.68591471  0.10006005  0.62713529     0.79500
N32         N  0.72654508  0.09713945  0.61452400    -0.78800
C33         C  0.73648096  0.09457416  0.57317888     0.82000
N34         N  0.70534191  0.09503562  0.54421075    -0.78700
C35         C  0.66459497  0.09764977  0.55656948     0.82100
N36         N  0.65486735  0.10076407  0.59801433    -0.80500
C37         C  0.25729864  0.44287470  0.85256984     0.79500
N38         N  0.24501082  0.44323771  0.81178149    -0.78800
C39         C  0.20360190  0.44361133  0.80177286     0.82000
N40         N  0.17436793  0.44419385  0.83278772    -0.78700
C41         C  0.18636176  0.44420299  0.87354692     0.82100
N42         N  0.22778777  0.44305519  0.88349221    -0.80500
C43         C  0.23697449  0.13215266  0.56129427     0.79500
N44         N  0.22539980  0.17320635  0.55944716    -0.78800
C45         C  0.18447072  0.18483105  0.55620791     0.82000
N46         N  0.15445597  0.15468136  0.55496188    -0.78700
C47         C  0.16581229  0.11338015  0.55641165     0.82100
N48         N  0.20691653  0.10224730  0.55966726    -0.80500
C49         C  0.50947944  0.13596323  0.80823601     0.79500
N50         N  0.50810137  0.10640301  0.83902353    -0.78800
C51         C  0.51197016  0.11794739  0.87981088     0.82000
N52         N  0.51593893  0.15899367  0.88998717    -0.78700
C53         C  0.51626720  0.18885188  0.85972801     0.82100
N54         N  0.51333116  0.17720733  0.81881178    -0.80500
C55         C  0.43401029  0.41635663  0.88381355     0.79500
N56         N  0.46314833  0.44739172  0.88407902    -0.78800
C57         C  0.50473358  0.43752463  0.88617362     0.82000
N58         N  0.51727488  0.39662423  0.88697431    -0.78700
C59         C  0.48834965  0.36551312  0.88607877     0.82100
N60         N  0.44691725  0.37566833  0.88481356    -0.80500
C61         C  0.46827760  0.10209056  0.63524942     0.79500
N62         N  0.49714897  0.10351428  0.60377600    -0.78800
C63         C  0.48460363  0.10307243  0.56311292     0.82000
N64         N  0.44315077  0.10226516  0.55377556    -0.78700
C65         C  0.41406917  0.10138208  0.58491133     0.82100
N66         N  0.42672690  0.10116966  0.62557345    -0.80500
C67         C  0.16658906  0.41596961  0.62710969     0.79500
N68         N  0.16659552  0.44546422  0.59641925    -0.78800
C69         C  0.16317780  0.43407922  0.55558379     0.82000
N70         N  0.16013979  0.39272379  0.54514940    -0.78700
C71         C  0.15920466  0.36295340  0.57583392     0.82100
N72         N  0.16271751  0.37486875  0.61652554    -0.80500
C73         C  0.51160328  0.91645309  0.82038650     0.79500
N74         N  0.51224407  0.94751755  0.84962608    -0.78800
C75         C  0.51351251  0.93769521  0.89116918     0.82000
N76         N  0.51389051  0.89684258  0.90348706    -0.78700
C77         C  0.51405249  0.86568960  0.87437892     0.82100
N78         N  0.51241883  0.87577317  0.83308789    -0.80500
C79         C  0.25097497  0.92590165  0.55511416     0.79500
N80         N  0.21714974  0.95206248  0.55454585    -0.78800
C81         C  0.17806897  0.93623506  0.54869305     0.82000
N82         N  0.17279262  0.89411991  0.54417718    -0.78700
C83         C  0.20649328  0.86756807  0.54492612     0.82100
N84         N  0.24537534  0.88392090  0.55077154    -0.80500
C85         C  0.20892371  0.61370869  0.80601553     0.79500
N86         N  0.17694590  0.61050014  0.83426944    -0.78800
C87         C  0.18566144  0.60829393  0.87606014     0.82000
N88         N  0.22601503  0.60998203  0.88947237    -0.78700
C89         C  0.25799495  0.61315175  0.86155074     0.82100
N90         N  0.24910546  0.61471888  0.82001942    -0.80500
C91         C  0.48436403  0.69108270  0.90811503     0.79500
N92         N  0.51452329  0.66073424  0.90609304    -0.78800
C93         C  0.50366647  0.61975105  0.90297228     0.82000
N94         N  0.46265246  0.60902583  0.90051670    -0.78700
C95         C  0.43228714  0.63911170  0.90218844     0.82100
N96         N  0.44327487  0.68006639  0.90605183    -0.80500
C97         C  0.18184828  0.64007574  0.62794434     0.79500
N98         N  0.17686641  0.60888010  0.59921904    -0.78800
C99         C  0.17490410  0.61827515  0.55757031     0.82000
N100        N  0.17823420  0.65886109  0.54459404    -0.78700
C101        C  0.18343250  0.69002149  0.57313955     0.82100
N102        N  0.18544221  0.68036319  0.61447418    -0.80500
C103        C  0.47798330  0.95297789  0.64562865     0.79500
N104        N  0.43668779  0.95634658  0.63569780    -0.78800
C105        C  0.42377444  0.95909927  0.59525600     0.82000
N106        N  0.45307721  0.95781386  0.56417861    -0.78700
C107        C  0.49458525  0.95412445  0.57357396     0.82100
N108        N  0.50704092  0.95130509  0.61431100    -0.80500
C109        C  0.92176279  0.90242563  0.55100862     0.79500
N110        N  0.93555158  0.86190836  0.54949079    -0.78800
C111        C  0.97720104  0.85277034  0.54639843     0.82000
N112        N  0.00524369  0.88461038  0.54488398    -0.78700
C113        C  0.99191106  0.92517132  0.54604721     0.82100
N114        N  0.95016230  0.93412462  0.54937354    -0.80500
C115        C  0.66024303  0.91911250  0.81243188     0.79500
N116        N  0.66326266  0.87816132  0.82386226    -0.78800
C117        C  0.66561719  0.86705664  0.86498346     0.82000
N118        N  0.66513326  0.89753860  0.89495205    -0.78700
C119        C  0.66202478  0.93869052  0.88352348     0.82100
N120        N  0.65997242  0.94928704  0.84239049    -0.80500
C121        C  0.98126834  0.59923203  0.80560547     0.79500
N122        N  0.01225296  0.59846076  0.83497543    -0.78800
C123        C  0.00221187  0.59977664  0.87661522     0.82000
N124        N  0.96131511  0.60266307  0.88879583    -0.78700
C125        C  0.93037357  0.60364218  0.85962046     0.82100
N126        N  0.94069204  0.60215773  0.81837137    -0.80500
C127        C  0.00952327  0.62684761  0.62765912     0.79500
N128        N  0.01126931  0.59556976  0.59847236    -0.78800
C129        C  0.01411828  0.60538225  0.55689834     0.82000
N130        N  0.01419267  0.64620223  0.54461112    -0.78700
C131        C  0.01271969  0.67746314  0.57343859     0.82100
N132        N  0.01055124  0.66754120  0.61474763    -0.80500
C133        C  0.70338612  0.69199452  0.89917253     0.79500
N134        N  0.67354470  0.66163179  0.89938282    -0.78800
C135        C  0.68507256  0.62029307  0.89998519     0.82000
N136        N  0.72649858  0.60934130  0.89965998    -0.78700
C137        C  0.75643345  0.63955704  0.89941315     0.82100
N138        N  0.74447272  0.68052653  0.89874496    -0.80500
C139        C  0.69199631  0.94084953  0.63612309     0.79500
N140        N  0.66282165  0.94412082  0.60537094    -0.78800
C141        C  0.67461203  0.94339163  0.56443257     0.82000
N142        N  0.71590206  0.93918290  0.55395521    -0.78700
C143        C  0.74544359  0.93591319  0.58459363     0.82100
N144        N  0.73314448  0.93664125  0.62545371    -0.80500
C145        C  0.25388743  0.62023670  0.08129124     0.79500
N146        N  0.24053499  0.61672976  0.12156823    -0.78800
C147        C  0.19941499  0.61124103  0.13080693     0.82000
N148        N  0.17097521  0.60990820  0.09917959    -0.78700
C149        C  0.18391774  0.61309742  0.05859772     0.82100
N150        N  0.22539256  0.61842834  0.04961027    -0.80500
C151        C  0.23718080  0.92248664  0.41125548     0.79500
N152        N  0.20505536  0.95072001  0.40906515    -0.78800
C153        C  0.16534262  0.93769736  0.40139064     0.82000
N154        N  0.15762552  0.89624010  0.39536521    -0.78700
C155        C  0.18940030  0.86766428  0.39836079     0.82100
N156        N  0.22896863  0.88095833  0.40629363    -0.80500
C157        C  0.49931639  0.93829283  0.14840012     0.79500
N158        N  0.50100017  0.96625409  0.11616847    -0.78800
C159        C  0.50840049  0.95229662  0.07640401     0.82000
N160        N  0.51339364  0.91056763  0.06896035    -0.78700
C161        C  0.51142648  0.88233673  0.10081923     0.82100
N162        N  0.50402172  0.89664267  0.14036295    -0.80500
C163        C  0.48584082  0.70649510  0.06780519     0.79500
N164        N  0.44425454  0.69767019  0.06798337    -0.78800
C165        C  0.43059874  0.65781296  0.06201824     0.82000
N166        N  0.45920217  0.62638657  0.05603745    -0.78700
C167        C  0.50102183  0.63497540  0.05625530     0.82100
N168        N  0.51428414  0.67502588  0.06225280    -0.80500
C169        C  0.45774479  0.96115754  0.32372046     0.79500
N170        N  0.41803183  0.95984510  0.33942648    -0.78800
C171        C  0.41090878  0.95576486  0.38127140     0.82000
N172        N  0.44389174  0.95340561  0.40791354    -0.78700
C173        C  0.48367740  0.95569345  0.39296116     0.82100
N174        N  0.49063385  0.95937494  0.35097144    -0.80500
C175        C  0.17312908  0.69102900  0.35858360     0.79500
N176        N  0.17200537  0.67971833  0.31747451    -0.78800
C177        C  0.16923875  0.63872821  0.30606661     0.82000
N178        N  0.16812847  0.60861087  0.33620035    -0.78700
C179        C  0.16855850  0.61958537  0.37734391     0.82100
N180        N  0.17116631  0.66064415  0.38845902    -0.80500
C181        C  0.66191410  0.92758617  0.13411386     0.79500
N182        N  0.66521634  0.88645593  0.12306270    -0.78800
C183        C  0.67035077  0.87516487  0.08224564     0.82000
N184        N  0.67225708  0.90552039  0.05233514    -0.78700
C185        C  0.66851842  0.94667567  0.06309613     0.82100
N186        N  0.66369215  0.95769435  0.10396701    -0.80500
C187        C  0.91230681  0.91336454  0.39584887     0.79500
N188        N  0.94223034  0.94341094  0.39534324    -0.78800
C189        C  0.98340043  0.93253936  0.39707728     0.82000
N190        N  0.99486426  0.89125896  0.39826536    -0.78700
C191        C  0.96505936  0.86072360  0.39863505     0.82100
N192        N  0.92392633  0.87227917  0.39726254    -0.80500
C193        C  0.93099725  0.61075525  0.07547513     0.79500
N194        N  0.94155276  0.61225371  0.11672429    -0.78800
C195        C  0.98231610  0.61095394  0.12927943     0.82000
N196        N  0.01318277  0.60849159  0.09975491    -0.78700
C197        C  0.00304093  0.60681723  0.05829623     0.82100
N198        N  0.96210920  0.60816459  0.04636288    -0.80500
C199        C  0.70436184  0.69983155  0.04678622     0.79500
N200        N  0.67342305  0.67064491  0.04709007    -0.78800
C201        C  0.68306652  0.62906497  0.04598959     0.82000
N202        N  0.72391612  0.61644063  0.04560708    -0.78700
C203        C  0.75512540  0.64536003  0.04504884     0.82100
N204        N  0.74519422  0.68697673  0.04569295    -0.80500
C205        C  0.00533024  0.68670819  0.36443537     0.79500
N206        N  0.00635437  0.67909897  0.32260251    -0.78800
C207        C  0.00875731  0.63923063  0.30749805     0.82000
N208        N  0.01076528  0.60649664  0.33501623    -0.78700
C209        C  0.00973364  0.61385519  0.37717061     0.82100
N210        N  0.00611569  0.65392468  0.39169946    -0.80500
C211        C  0.73785113  0.94780482  0.36265811     0.79500
N212        N  0.70769897  0.94563444  0.39263769    -0.78800
C213        C  0.66656472  0.94686741  0.38196607     0.82000
N214        N  0.65526176  0.94978715  0.34096084    -0.78700
C215        C  0.68533706  0.95205867  0.31065773     0.82100
N216        N  0.72649194  0.95094915  0.32177852    -0.80500
C217        C  0.97804211  0.46161545  0.11997281     0.79500
N218        N  0.00909689  0.46014492  0.09074732    -0.78800
C219        C  0.99968488  0.45873891  0.04935498     0.82000
N220        N  0.95908252  0.45850879  0.03682594    -0.78700
C221        C  0.92765569  0.46038899  0.06557530     0.82100
N222        N  0.93729850  0.46205188  0.10709728    -0.80500
C223        C  0.90744504  0.13580776  0.37531913     0.79500
N224        N  0.91946484  0.17642450  0.37107605    -0.78800
C225        C  0.96046575  0.18749751  0.37320568     0.82000
N226        N  0.99005288  0.15704751  0.37898895    -0.78700
C227        C  0.97854196  0.11613623  0.38325508     0.82100
N228        N  0.93720008  0.10549893  0.38130488    -0.80500
C229        C  0.65766415  0.15189241  0.12575480     0.79500
N230        N  0.66008610  0.12106275  0.09635656    -0.78800
C231        C  0.66714553  0.13046970  0.05541137     0.82000
N232        N  0.67175984  0.17118606  0.04342297    -0.78700
C233        C  0.66882634  0.20253512  0.07234144     0.82100
N234        N  0.66207843  0.19253335  0.11329189    -0.80500
C235        C  0.75207990  0.43175390  0.03396595     0.79500
N236        N  0.72085217  0.46098926  0.03456673    -0.78800
C237        C  0.68007371  0.44910616  0.03569996     0.82000
N238        N  0.67031519  0.40762007  0.03676474    -0.78700
C239        C  0.70126259  0.37788436  0.03535369     0.82100
N240        N  0.74199752  0.39029703  0.03424660    -0.80500
C241        C  0.72959249  0.10658086  0.34930854     0.79500
N242        N  0.70131890  0.10411059  0.38138748    -0.78800
C243        C  0.65926457  0.10554217  0.37320907     0.82000
N244        N  0.64552211  0.11011495  0.33305160    -0.78700
C245        C  0.67359747  0.11222491  0.30104050     0.82100
N246        N  0.71519241  0.11084788  0.30948189    -0.80500
C247        C  0.99790700  0.42177326  0.29438538     0.79500
N248        N  0.00042771  0.44798809  0.32768894    -0.78800
C249        C  0.00062873  0.43229246  0.36719994     0.82000
N250        N  0.99751224  0.39014608  0.37358942    -0.78700
C251        C  0.99437913  0.36359962  0.34025356     0.82100
N252        N  0.99504582  0.37971492  0.30077783    -0.80500
C253        C  0.25027570  0.45586163  0.07932443     0.79500
N254        N  0.23764694  0.45235358  0.11987698    -0.78800
C255        C  0.19610562  0.45027060  0.12949499     0.82000
N256        N  0.16719076  0.45071940  0.09824194    -0.78700
C257        C  0.17981763  0.45417718  0.05765151     0.82100
N258        N  0.22126520  0.45645370  0.04828287    -0.80500
C259        C  0.50298884  0.14754363  0.13324429     0.79500
N260        N  0.50410370  0.11826459  0.10245385    -0.78800
C261        C  0.50609770  0.12998232  0.06159945     0.82000
N262        N  0.50662859  0.17146833  0.05108629    -0.78700
C263        C  0.50559636  0.20121022  0.08180138     0.82100
N264        N  0.50377463  0.18872861  0.12249241    -0.80500
C265        C  0.23093780  0.13935138  0.38254018     0.79500
N266        N  0.20174283  0.10841985  0.38389876    -0.78800
C267        C  0.16016701  0.11843127  0.38553224     0.82000
N268        N  0.14774495  0.15932081  0.38447657    -0.78700
C269        C  0.17667273  0.19036900  0.38230879     0.82100
N270        N  0.21821164  0.18016372  0.38176369    -0.80500
C271        C  0.40909556  0.11299801  0.35610105     0.79500
N272        N  0.42303499  0.11599847  0.31588158    -0.78800
C273        C  0.46470046  0.11683068  0.30715639     0.82000
N274        N  0.49287695  0.11454223  0.33879388    -0.78700
C275        C  0.47957192  0.11166394  0.37906547     0.82100
N276        N  0.43768499  0.11117780  0.38787480    -0.80500
C277        C  0.15464607  0.41755375  0.30318486     0.79500
N278        N  0.14983682  0.37704619  0.31576893    -0.78800
C279        C  0.14763066  0.36695831  0.35705553     0.82000
N280        N  0.15017562  0.39788853  0.38616796    -0.78700
C281        C  0.15479658  0.43846443  0.37420605     0.82100
N282        N  0.15750093  0.44829383  0.33275358    -0.80500
C283        C  0.42752269  0.43034408  0.04922814     0.79500
N284        N  0.45725689  0.46067441  0.04659146    -0.78800
C285        C  0.49871904  0.44999585  0.04543146     0.82000
N286        N  0.51062661  0.40882904  0.04735870    -0.78700
C287        C  0.48097855  0.37844340  0.04954697     0.82100
N288        N  0.43990203  0.38953274  0.05078059    -0.80500
O289        O  0.54333465  0.58825499  0.01642626    -0.73700
O290        O  0.63177160  0.49791098  0.00658258    -0.74600
O291        O  0.54263150  0.49902159  0.01108184    -0.63300
O292        O  0.63249729  0.58709515  0.01203012    -0.71700
O293        O  0.63741915  0.58201779  0.08122218    -0.71200
O294        O  0.54608618  0.49496071  0.08050880    -0.62500
O295        O  0.63503394  0.49291531  0.07591761    -0.75000
O296        O  0.54780421  0.58478847  0.08579635    -0.73800
Cu297      Cu  0.58740216  0.54322548  0.00916566     1.04600
Cu298      Cu  0.59159799  0.53856495  0.08333442     1.04300
C299        C  0.53195842  0.60092661  0.05265468     0.92500
C300        C  0.64717834  0.48119720  0.03953550     0.91700
C301        C  0.53055392  0.48291016  0.04565508     0.83800
C302        C  0.64944757  0.59796009  0.04649178     0.90100
O303        O  0.13541406  0.57337614  0.51378891    -0.73700
O304        O  0.12601491  0.48695159  0.42263595    -0.74600
O305        O  0.12976726  0.48395734  0.51151635    -0.63300
O306        O  0.13235119  0.57569834  0.42486881    -0.71700
O307        O  0.20187710  0.57027108  0.42175277    -0.71200
O308        O  0.19924443  0.47846620  0.50818580    -0.62500
O309        O  0.19547479  0.48155017  0.41894610    -0.75000
O310        O  0.20492930  0.56815547  0.51089830    -0.73800
Cu311      Cu  0.12849900  0.53014766  0.46835448     1.04600
Cu312      Cu  0.20286542  0.52441298  0.46491528     1.04300
C313        C  0.17159136  0.58473613  0.52629657     0.92500
C314        C  0.15901742  0.47084822  0.40639084     0.91700
C315        C  0.16406808  0.46665762  0.52323575     0.83800
C316        C  0.16753268  0.58710484  0.40957506     0.90100
O317        O  0.52781642  0.06985730  0.51280167    -0.73700
O318        O  0.61392856  0.07048185  0.42061606    -0.74600
O319        O  0.61654797  0.06682809  0.50964727    -0.63300
O320        O  0.52458083  0.07366782  0.42420411    -0.71700
O321        O  0.52630906  0.14332093  0.42717282    -0.71200
O322        O  0.61840213  0.13645432  0.51310866    -0.62500
O323        O  0.61601309  0.14009750  0.42362127    -0.75000
O324        O  0.52963506  0.13945607  0.51650462    -0.73800
Cu325      Cu  0.57064808  0.06784719  0.46671749     1.04600
Cu326      Cu  0.57265419  0.14234577  0.47016396     1.04300
C327        C  0.51551949  0.10426031  0.52931616     0.92500
C328        C  0.62857715  0.10534300  0.40764294     0.91700
C329        C  0.63158981  0.10043430  0.52505350     0.83800
C330        C  0.51099282  0.10948778  0.41229781     0.90100
O331        O  0.04117307  0.46891204  0.50523872    -0.73700
O332        O  0.04339438  0.56150109  0.41881688    -0.74600
O333        O  0.04580208  0.55801125  0.50853880    -0.63300
O334        O  0.03878888  0.47221050  0.41625928    -0.71700
O335        O  0.96919184  0.47708777  0.41760490    -0.71200
O336        O  0.97617602  0.56110098  0.51134966    -0.62500
O337        O  0.97391669  0.56646258  0.42208246    -0.75000
O338        O  0.97149733  0.47235818  0.50643915    -0.73800
Cu339      Cu  0.04472827  0.51496858  0.46211403     1.04600
Cu340      Cu  0.97026391  0.51933986  0.46440719     1.04300
C341        C  0.00594127  0.45630288  0.51940296     0.92500
C342        C  0.00901367  0.57873539  0.40712408     0.91700
C343        C  0.01203108  0.57277485  0.52462358     0.83800
C344        C  0.00294637  0.46137771  0.40241580     0.90100
O345        O  0.53534485  0.98692906  0.43563389    -0.73700
O346        O  0.62904749  0.98103240  0.51944008    -0.74600
O347        O  0.62369021  0.98236999  0.43072154    -0.63300
O348        O  0.54029602  0.98593495  0.52473219    -0.71700
O349        O  0.53700819  0.91633401  0.52476671    -0.71200
O350        O  0.62033785  0.91270751  0.42916186    -0.62500
O351        O  0.62622691  0.91137197  0.51837094    -0.75000
O352        O  0.53134423  0.91732507  0.43540548    -0.73800
Cu353      Cu  0.58221111  0.98641914  0.47763033     1.04600
Cu354      Cu  0.57863522  0.91190875  0.47687469     1.04300
C355        C  0.51870060  0.95316148  0.42235023     0.92500
C356        C  0.64224767  0.94533564  0.53211867     0.91700
C357        C  0.63499020  0.94721784  0.41510669     0.83800
C358        C  0.52555818  0.95194202  0.53960901     0.90100
O359        O  0.54901101  0.57666928  0.86263741    -0.73700
O360        O  0.63899101  0.48799411  0.85299228    -0.74600
O361        O  0.54949643  0.48772068  0.85440050    -0.63300
O362        O  0.63823418  0.57744754  0.86122176    -0.71700
O363        O  0.64014261  0.56954678  0.93029105    -0.71200
O364        O  0.55043606  0.48173791  0.92379120    -0.62500
O365        O  0.63881598  0.48090455  0.92229609    -0.75000
O366        O  0.55099687  0.57049921  0.93197690    -0.73800
Cu367      Cu  0.59391299  0.53267582  0.85528974     1.04600
Cu368      Cu  0.59512180  0.52549900  0.92942189     1.04300
C369        C  0.53608430  0.58751060  0.89901085     0.92500
C370        C  0.65268651  0.47039487  0.88631641     0.91700
C371        C  0.53614611  0.47072193  0.88815327     0.83800
C372        C  0.65300362  0.58759347  0.89702473     0.90100
O373        O  0.02773294  0.98269270  0.42886050    -0.73700
O374        O  0.11355016  0.07475108  0.42339208    -0.74600
O375        O  0.02426780  0.07206302  0.42248597    -0.63300
O376        O  0.11681666  0.98604232  0.43050331    -0.71700
O377        O  0.11751303  0.97855329  0.36129344    -0.71200
O378        O  0.02642667  0.06706002  0.35303284    -0.62500
O379        O  0.11617351  0.06774839  0.35410100    -0.75000
O380        O  0.02875200  0.97746123  0.35944400    -0.73800
Cu381      Cu  0.07049642  0.02904199  0.42872045     1.04600
Cu382      Cu  0.07221785  0.02256890  0.35450034     1.04300
C383        C  0.01504021  0.96548830  0.39509128     0.92500
C384        C  0.12861614  0.08533572  0.38779865     0.91700
C385        C  0.01106174  0.08338057  0.38644056     0.83800
C386        C  0.13150349  0.96868430  0.39751232     0.90100
O387        O  0.03559077  0.97194632  0.58334991    -0.73700
O388        O  0.12072571  0.06427720  0.58850591    -0.74600
O389        O  0.03188423  0.06101836  0.58663668    -0.63300
O390        O  0.12561797  0.97545687  0.58482143    -0.71700
O391        O  0.12706845  0.97884198  0.51530323    -0.71200
O392        O  0.03284266  0.06295728  0.51694099    -0.62500
O393        O  0.12134604  0.06773781  0.51887572    -0.75000
O394        O  0.03758771  0.97402651  0.51379542    -0.73800
Cu395      Cu  0.07834945  0.01796905  0.58830458     1.04600
Cu396      Cu  0.07971543  0.02089100  0.51381375     1.04300
C397        C  0.02294740  0.95877263  0.54775892     0.92500
C398        C  0.13416727  0.08058301  0.55450978     0.91700
C399        C  0.01797865  0.07551850  0.55196535     0.83800
C400        C  0.14163792  0.96448661  0.54965809     0.90100
O401        O  0.54367924  0.99333395  0.02567287    -0.73700
O402        O  0.54483894  0.07487468  0.93006611    -0.74600
O403        O  0.54247517  0.08190325  0.01830266    -0.63300
O404        O  0.54588511  0.98636865  0.93648827    -0.71700
O405        O  0.47627229  0.98495619  0.93534152    -0.71200
O406        O  0.47279157  0.08269890  0.01536010    -0.62500
O407        O  0.47527847  0.07343268  0.92652739    -0.75000
O408        O  0.47397075  0.99408103  0.02505443    -0.73800
Cu409      Cu  0.54659842  0.03406698  0.97765580     1.04600
Cu410      Cu  0.47206211  0.03369254  0.97551187     1.04300
C411        C  0.50866867  0.98153419  0.04096381     0.92500
C412        C  0.51057194  0.08685428  0.91326384     0.91700
C413        C  0.50715836  0.09729792  0.02960625     0.83800
C414        C  0.51179904  0.97107355  0.92259864     0.90100
O415        O  0.14045682  0.48213719  0.91777958    -0.73700
O416        O  0.04896124  0.48893230  0.00352120    -0.74600
O417        O  0.13752669  0.48696479  0.00647135    -0.63300
O418        O  0.05184803  0.48447350  0.91521800    -0.71700
O419        O  0.05042250  0.41481327  0.91795727    -0.71200
O420        O  0.13504913  0.41742417  0.01148315    -0.62500
O421        O  0.04630953  0.41934472  0.00673674    -0.75000
O422        O  0.13985340  0.41247503  0.92204952    -0.73800
Cu423      Cu  0.09481094  0.48797755  0.96061327     1.04600
Cu424      Cu  0.09296830  0.41345587  0.96464213     1.04300
C425        C  0.15441550  0.44629145  0.90632460     0.92500
C426        C  0.03319099  0.45547363  0.01844024     0.91700
C427        C  0.14924019  0.45277089  0.02376023     0.83800
C428        C  0.03743071  0.44956572  0.90249739     0.90100
O429        O  0.69923840  0.98672678  0.92620271    -0.73700
O430        O  0.70189324  0.08215508  0.00975754    -0.74600
O431        O  0.70250195  0.99206085  0.01489753    -0.63300
O432        O  0.69877418  0.07644682  0.92063712    -0.71700
O433        O  0.62917597  0.07663181  0.92364224    -0.71200
O434        O  0.63280353  0.99277003  0.01737327    -0.62500
O435        O  0.63223272  0.08160101  0.01246859    -0.75000
O436        O  0.62963851  0.98759369  0.92903926    -0.73800
Cu437      Cu  0.70314472  0.03437179  0.96779500     1.04600
Cu438      Cu  0.62862782  0.03469223  0.97071689     1.04300
C439        C  0.66378551  0.97215180  0.91479299     0.92500
C440        C  0.66724123  0.09671304  0.02421568     0.91700
C441        C  0.66804048  0.97885824  0.03046802     0.83800
C442        C  0.66324324  0.08982707  0.90751591     0.90100
O443        O  0.04820826  0.64198395  0.01087260    -0.73700
O444        O  0.13613121  0.64235740  0.91999856    -0.74600
O445        O  0.04706124  0.63856702  0.92136839    -0.63300
O446        O  0.13769839  0.64525515  0.00950290    -0.71700
O447        O  0.14022974  0.57559369  0.01221139    -0.71200
O448        O  0.05129083  0.56901653  0.92339246    -0.62500
O449        O  0.14029108  0.57274361  0.92292411    -0.75000
O450        O  0.05135155  0.57239691  0.01293906    -0.73800
Cu451      Cu  0.09217719  0.64451480  0.96533750     1.04600
Cu452      Cu  0.09590379  0.57004580  0.96791369     1.04300
C453        C  0.03595350  0.60705606  0.02612498     0.92500
C454        C  0.15200329  0.60766626  0.90728716     0.91700
C455        C  0.03525222  0.60256681  0.90837984     0.83800
C456        C  0.15282424  0.61130636  0.02491298     0.90100
C457        C  0.29017736  0.10776825  0.34260381    -0.27000
C458        C  0.27612378  0.12894592  0.37854802    -0.15100
C459        C  0.30569918  0.14180827  0.40875191     0.35500
C460        C  0.34863727  0.13420841  0.40201562    -0.26500
C461        C  0.36311428  0.11500463  0.36490301    -0.15700
C462        C  0.33328572  0.10082278  0.33524868     0.36600
N463        N  0.34677025  0.07996471  0.29746919    -0.90000
H464        H  0.26742591  0.09771429  0.31954256     0.17700
H465        H  0.37089012  0.14511923  0.42516644     0.17700
N466        N  0.29293549  0.16272405  0.44648729    -0.89000
H467        H  0.32099257  0.07178520  0.27903670     0.35100
H468        H  0.36161222  0.05187207  0.30604870     0.40200
H469        H  0.27138128  0.14364611  0.46213399     0.39800
H470        H  0.27794533  0.19088813  0.43848808     0.34700
C471        C  0.18621485  0.26454027  0.40318116    -0.27000
C472        C  0.16366606  0.23509418  0.37982659    -0.15100
C473        C  0.13205064  0.24931098  0.35207073     0.35500
C474        C  0.12554740  0.29282530  0.34681982    -0.26500
C475        C  0.14902796  0.32220050  0.36957141    -0.15700
C476        C  0.17846835  0.30778736  0.39939817     0.36600
N477        N  0.20255734  0.33706499  0.42361897    -0.90000
H478        H  0.21100942  0.25377957  0.42359169     0.17700
H479        H  0.10300832  0.30396084  0.32387747     0.17700
N480        N  0.10916511  0.21994298  0.32680702    -0.89000
H481        H  0.22533831  0.32136022  0.44134339     0.35100
H482        H  0.18210712  0.35112388  0.44523721     0.40200
H483        H  0.08985954  0.20261956  0.34676083     0.39800
H484        H  0.08901327  0.23581402  0.30627180     0.34700
C485        C  0.48446722  0.27324872  0.10287715    -0.27000
C486        C  0.50274259  0.24700558  0.07228349    -0.15100
C487        C  0.51713794  0.26521387  0.03431495     0.35500
C488        C  0.51161311  0.30887928  0.02762104    -0.26500
C489        C  0.49215684  0.33425405  0.05813755    -0.15700
C490        C  0.47901794  0.31622373  0.09608598     0.36600
N491        N  0.45961508  0.34167411  0.12788525    -0.90000
H492        H  0.47321457  0.26033346  0.13223310     0.17700
H493        H  0.52143527  0.32289478  0.99824779     0.17700
N494        N  0.53720644  0.23962591  0.00288221    -0.89000
H495        H  0.47737861  0.33884822  0.15528559     0.35100
H496        H  0.42972272  0.32970947  0.13392815     0.40200
H497        H  0.56531937  0.22826544  0.01557996     0.39800
H498        H  0.54537630  0.25778248  0.97681246     0.34700
C499        C  0.46994535  0.09199215  0.23402244    -0.27000
C500        C  0.47900418  0.12301869  0.26376097    -0.15100
C501        C  0.49943315  0.16020829  0.25096554     0.35500
C502        C  0.50918331  0.16572097  0.20857737    -0.26500
C503        C  0.49830590  0.13577794  0.17816096    -0.15700
C504        C  0.47968455  0.09765863  0.19133451     0.36600
N505        N  0.46896668  0.06566832  0.16147863    -0.90000
H506        H  0.45460439  0.06342509  0.24415711     0.17700
H507        H  0.52410888  0.19474843  0.19921169     0.17700
N508        N  0.50927765  0.19386213  0.27938790    -0.89000
H509        H  0.45332876  0.04092362  0.17623827     0.35100
H510        H  0.49702734  0.05290442  0.15000305     0.40200
H511        H  0.49952755  0.18771390  0.30996640     0.39800
H512        H  0.49236266  0.22043322  0.26976513     0.34700
C513        C  0.17899028  0.39452925  0.23259763    -0.27000
C514        C  0.16192570  0.42665808  0.25789976    -0.15100
C515        C  0.15387970  0.46652268  0.23973569     0.35500
C516        C  0.16427712  0.47347336  0.19726166    -0.26500
C517        C  0.18309993  0.44172581  0.17302514    -0.15700
C518        C  0.19002672  0.40176040  0.19061589     0.36600
N519        N  0.20781940  0.36847234  0.16556606    -0.90000
H520        H  0.18513061  0.36380377  0.24593537     0.17700
H521        H  0.15826124  0.50389765  0.18316971     0.17700
N522        N  0.13516213  0.49967170  0.26421653    -0.89000
H523        H  0.20940310  0.34052545  0.18274050     0.35100
H524        H  0.23878428  0.37651255  0.15845011     0.40200
H525        H  0.10481141  0.49026422  0.27228922     0.39800
H526        H  0.13189339  0.52700466  0.24628601     0.34700
C527        C  0.35321694  0.40823070  0.04468404    -0.27000
C528        C  0.38194831  0.44035971  0.05359176    -0.15100
C529        C  0.36646966  0.47913956  0.06949572     0.35500
C530        C  0.32304774  0.48398223  0.07727534    -0.26500
C531        C  0.29502026  0.45139189  0.06866183    -0.15700
C532        C  0.31033188  0.41339495  0.05176386     0.36600
N533        N  0.28315299  0.37879973  0.04307416    -0.90000
H534        H  0.36416740  0.37816462  0.03290458     0.17700
H535        H  0.31109597  0.51293590  0.09080615     0.17700
N536        N  0.39462431  0.51287140  0.07902293    -0.89000
H537        H  0.26113851  0.38827357  0.02067702     0.35100
H538        H  0.26727163  0.37082306  0.07065677     0.40200
H539        H  0.41314541  0.50330268  0.10435617     0.39800
H540        H  0.37789648  0.53941215  0.08910809     0.34700
C541        C  0.65003397  0.09139824  0.22957527    -0.27000
C542        C  0.66034778  0.12307994  0.25811773    -0.15100
C543        C  0.66436388  0.16468981  0.24400799     0.35500
C544        C  0.66097727  0.17353716  0.20101037    -0.26500
C545        C  0.65380501  0.14152774  0.17144624    -0.15700
C546        C  0.64618424  0.10016589  0.18635341     0.36600
N547        N  0.63543753  0.06703296  0.15778316    -0.90000
H548        H  0.64643084  0.05950925  0.24083229     0.17700
H549        H  0.66588720  0.20548913  0.19055488     0.17700
N550        N  0.67384316  0.19753125  0.27339162    -0.89000
H551        H  0.63175632  0.03863094  0.17378943     0.35100
H552        H  0.60609899  0.07449123  0.14503076     0.40200
H553        H  0.64831435  0.20031542  0.29391839     0.39800
H554        H  0.67648924  0.22641244  0.25803389     0.34700
C555        C  0.70391175  0.25787915  0.02914397    -0.27000
C556        C  0.67407493  0.24726273  0.05984382    -0.15100
C557        C  0.65073061  0.27973408  0.07947186     0.35500
C558        C  0.65928583  0.32192091  0.06965019    -0.26500
C559        C  0.69093278  0.33267996  0.04090649    -0.15700
C560        C  0.71291202  0.29998339  0.01985098     0.36600
N561        N  0.74409259  0.30839467  0.98854394    -0.90000
H562        H  0.72157154  0.23329578  0.01333913     0.17700
H563        H  0.64195487  0.34662840  0.08560903     0.17700
N564        N  0.61840161  0.26979439  0.10935701    -0.89000
H565        H  0.76940908  0.32355386  0.00252291     0.35100
H566        H  0.73093308  0.32818174  0.96587329     0.40200
H567        H  0.59507956  0.25330564  0.09345545     0.39800
H568        H  0.60418495  0.29718431  0.12088683     0.34700
C569        C  0.94978946  0.25318690  0.33284880    -0.27000
C570        C  0.97214541  0.23179764  0.36425464    -0.15100
C571        C  0.00326614  0.25362486  0.38689246     0.35500
C572        C  0.01018748  0.29659402  0.37837823    -0.26500
C573        C  0.98760511  0.31787256  0.34692671    -0.15700
C574        C  0.95734077  0.29537182  0.32366351     0.36600
N575        N  0.93243145  0.31473258  0.29156968    -0.90000
H576        H  0.92599133  0.23687927  0.31503228     0.17700
H577        H  0.03339186  0.31357915  0.39632817     0.17700
N578        N  0.02624670  0.23295086  0.41972651    -0.89000
H579        H  0.95205834  0.32391596  0.26698511     0.35100
H580        H  0.91725431  0.34113626  0.30411948     0.40200
H581        H  0.04542594  0.21002331  0.40598194     0.39800
H582        H  0.04648489  0.25401767  0.43443347     0.34700
C583        C  0.84049248  0.09954344  0.39635999    -0.27000
C584        C  0.86275961  0.12505066  0.36807378    -0.15100
C585        C  0.84157313  0.14233480  0.33327316     0.35500
C586        C  0.79860446  0.13513039  0.32814992    -0.26500
C587        C  0.77559975  0.11087700  0.35685126    -0.15700
C588        C  0.79694030  0.09238105  0.39120008     0.36600
N589        N  0.77461382  0.06633683  0.42039344    -0.90000
H590        H  0.85685070  0.08606694  0.42296903     0.17700
H591        H  0.78281486  0.14946662  0.30165751     0.17700
N592        N  0.86389235  0.16733556  0.30307168    -0.89000
H593        H  0.79477174  0.05552754  0.44393930     0.35100
H594        H  0.76441364  0.03981589  0.40410279     0.40200
H595        H  0.84371798  0.17819489  0.27956461     0.39800
H596        H  0.88602108  0.14782192  0.28839873     0.34700
C597        C  0.95909316  0.47358459  0.19493586    -0.27000
C598        C  0.98791081  0.45759893  0.16537885    -0.15100
C599        C  0.02350104  0.43477263  0.17979324     0.35500
C600        C  0.02702699  0.42516417  0.22263914    -0.26500
C601        C  0.99657374  0.43860111  0.25140874    -0.15700
C602        C  0.96336720  0.46476430  0.23793874     0.36600
N603        N  0.93281789  0.48019656  0.26754924    -0.90000
H604        H  0.93246886  0.49207522  0.18430242     0.17700
H605        H  0.05296491  0.40582591  0.23352531     0.17700
N606        N  0.05494681  0.41960989  0.15098318    -0.89000
H607        H  0.90942945  0.49751790  0.25222107     0.35100
H608        H  0.94804923  0.50125649  0.28741883     0.40200
H609        H  0.04132520  0.39596798  0.13291884     0.39800
H610        H  0.07992277  0.40554534  0.16710189     0.34700
C611        C  0.85302809  0.48287897  0.07125973    -0.27000
C612        C  0.88331753  0.45691860  0.05230527    -0.15100
C613        C  0.87038486  0.42570571  0.02366614     0.35500
C614        C  0.82727870  0.41939992  0.01690143    -0.26500
C615        C  0.79679795  0.44423606  0.03718620    -0.15700
C616        C  0.81017125  0.47742557  0.06355838     0.36600
N617        N  0.78117622  0.50482687  0.08465115    -0.90000
H618        H  0.86274772  0.50712620  0.09295029     0.17700
H619        H  0.81735392  0.39432353  0.99627194     0.17700
N620        N  0.90077874  0.39877495  0.00356264    -0.89000
H621        H  0.76077938  0.48681156  0.10287772     0.35100
H622        H  0.76403486  0.52158226  0.06220692     0.40200
H623        H  0.91690322  0.41692921  0.98155974     0.39800
H624        H  0.88582439  0.37519421  0.98650263     0.34700
C625        C  0.02793585  0.60187786  0.24030358    -0.27000
C626        C  0.00330755  0.63192474  0.26170066    -0.15100
C627        C  0.97282306  0.65508637  0.23906392     0.35500
C628        C  0.96752717  0.64768845  0.19604423    -0.26500
C629        C  0.99197641  0.61786754  0.17444112    -0.15700
C630        C  0.02306688  0.59511345  0.19689414     0.36600
N631        N  0.04932384  0.56436122  0.17685154    -0.90000
H632        H  0.05150415  0.58402811  0.25727421     0.17700
H633        H  0.94382259  0.66543943  0.17916172     0.17700
N634        N  0.94646547  0.68544757  0.26003221    -0.89000
H635        H  0.06726363  0.57930568  0.15386877     0.35100
H636        H  0.03015532  0.54218155  0.16236841     0.40200
H637        H  0.92764401  0.66920604  0.28139639     0.39800
H638        H  0.92607920  0.70011347  0.23885206     0.34700
C639        C  0.82936714  0.64357501  0.01985133    -0.27000
C640        C  0.79939431  0.63198186  0.04987961    -0.15100
C641        C  0.81238084  0.61039140  0.08620263     0.35500
C642        C  0.85529365  0.60203472  0.09247897    -0.26500
C643        C  0.88586551  0.61488452  0.06332900    -0.15700
C644        C  0.87221875  0.63473715  0.02574347     0.36600
N645        N  0.90088274  0.64781064  0.99370318    -0.90000
H646        H  0.81942521  0.66009612  0.99180338     0.17700
H647        H  0.86501105  0.58640635  0.12107770     0.17700
N648        N  0.78206860  0.59861763  0.11749291    -0.89000
H649        H  0.91660724  0.62134680  0.98200170     0.35100
H650        H  0.92255487  0.66851218  0.00674603     0.40200
H651        H  0.76927108  0.62622680  0.13008692     0.39800
H652        H  0.79664620  0.58273717  0.14225793     0.34700
C653        C  0.79355824  0.91325586  0.40489862    -0.27000
C654        C  0.78248918  0.94285667  0.37412574    -0.15100
C655        C  0.81428441  0.96513465  0.35315744     0.35500
C656        C  0.85651949  0.95646454  0.36221006    -0.26500
C657        C  0.86762380  0.92502401  0.39110379    -0.15700
C658        C  0.83584066  0.90366071  0.41321816     0.36600
N659        N  0.84657903  0.87180107  0.44339155    -0.90000
H660        H  0.76914184  0.89617251  0.42117562     0.17700
H661        H  0.88072735  0.97320709  0.34525678     0.17700
N662        N  0.80383018  0.99645797  0.32257915    -0.89000
H663        H  0.81955580  0.85952538  0.45727981     0.35100
H664        H  0.86367634  0.88604215  0.46733136     0.40200
H665        H  0.81761530  0.98769875  0.29406604     0.39800
H666        H  0.81719272  0.02482351  0.33194710     0.34700
C667        C  0.01736864  0.80398799  0.38140175    -0.27000
C668        C  0.97709048  0.81528526  0.39607294    -0.15100
C669        C  0.94794097  0.78283835  0.40442066     0.35500
C670        C  0.95897806  0.74072669  0.39657157    -0.26500
C671        C  0.99809516  0.73011911  0.37934320    -0.15700
C672        C  0.02771230  0.76206394  0.37228783     0.36600
N673        N  0.06841471  0.75273008  0.35549079    -0.90000
H674        H  0.04039542  0.82800200  0.37482507     0.17700
H675        H  0.93596059  0.71638129  0.40191056     0.17700
N676        N  0.90652901  0.79236987  0.41947289    -0.89000
H677        H  0.06490589  0.73922640  0.32584800     0.35100
H678        H  0.08291555  0.73072675  0.37514195     0.40200
H679        H  0.90152944  0.77582114  0.44729342     0.39800
H680        H  0.88499228  0.78146549  0.39739179     0.34700
C681        C  0.64245887  0.92501880  0.25140532    -0.27000
C682        C  0.67402350  0.95206540  0.26563623    -0.15100
C683        C  0.69751084  0.97531501  0.23613045     0.35500
C684        C  0.69070538  0.96905908  0.19304960    -0.26500
C685        C  0.66173628  0.93930349  0.17893529    -0.15700
C686        C  0.63664835  0.91795993  0.20832035     0.36600
N687        N  0.60582866  0.88852404  0.19447662    -0.90000
H688        H  0.62397775  0.90732149  0.27375119     0.17700
H689        H  0.70986564  0.98565748  0.17042641     0.17700
N690        N  0.72909630  0.00416097  0.25002141    -0.89000
H691        H  0.57660897  0.89799871  0.20626587     0.35100
H692        H  0.61310507  0.85924934  0.20753179     0.40200
H693        H  0.71409348  0.02785228  0.26724583     0.39800
H694        H  0.74348622  0.01876435  0.22443006     0.34700
C695        C  0.70662643  0.81927903  0.04061818    -0.27000
C696        C  0.67631231  0.83030887  0.07086412    -0.15100
C697        C  0.65338069  0.79828668  0.09100445     0.35500
C698        C  0.66202343  0.75600826  0.08128692    -0.26500
C699        C  0.69371323  0.74490958  0.05254038    -0.15700
C700        C  0.71588453  0.77690217  0.03154911     0.36600
N701        N  0.74781771  0.76626901  0.00133042    -0.90000
H702        H  0.72414204  0.84380462  0.02499667     0.17700
H703        H  0.64489144  0.73151026  0.09738293     0.17700
N704        N  0.62159272  0.80878665  0.12141841    -0.89000
H705        H  0.76114457  0.79342406  0.98874674     0.35100
H706        H  0.73326443  0.75072560  0.97649348     0.40200
H707        H  0.59825012  0.82596604  0.10596710     0.39800
H708        H  0.60731123  0.78166673  0.13299032     0.34700
C709        C  0.50461750  0.97476991  0.26174808    -0.27000
C710        C  0.46548570  0.96107642  0.27727553    -0.15100
C711        C  0.43609053  0.94466866  0.24809508     0.35500
C712        C  0.44745425  0.93973208  0.20595591    -0.26500
C713        C  0.48704818  0.95148945  0.19121798    -0.15700
C714        C  0.51548184  0.97055899  0.21894756     0.36600
N715        N  0.55595014  0.98361807  0.20403986    -0.90000
H716        H  0.52723674  0.98803061  0.28322292     0.17700
H717        H  0.42543684  0.92523498  0.18459839     0.17700
N718        N  0.39509086  0.93084354  0.26010525    -0.89000
H719        H  0.57355676  0.99629322  0.22853106     0.35100
H720        H  0.55117739  0.00784945  0.18241929     0.40200
H721        H  0.37810199  0.95636840  0.27213666     0.39800
H722        H  0.39796224  0.90729510  0.28277911     0.34700
C723        C  0.50100220  0.80872326  0.12519492    -0.27000
C724        C  0.51204051  0.83613841  0.09238802    -0.15100
C725        C  0.52067176  0.81880106  0.05215472     0.35500
C726        C  0.51397231  0.77561856  0.04510354    -0.26500
C727        C  0.49942799  0.74955847  0.07733089    -0.15700
C728        C  0.49460130  0.76602423  0.11804714     0.36600
N729        N  0.48293635  0.74001529  0.15277542    -0.90000
H730        H  0.49564416  0.82060025  0.15660391     0.17700
H731        H  0.51896065  0.76250984  0.01411433     0.17700
N732        N  0.53563320  0.84483478  0.01852327    -0.89000
H733        H  0.50493029  0.71559964  0.15524071     0.35100
H734        H  0.45360480  0.72700816  0.14672591     0.40200
H735        H  0.56548307  0.85535858  0.02690147     0.39800
H736        H  0.53956070  0.82727296  0.99105572     0.34700
C737        C  0.31231662  0.90928287  0.42839702    -0.27000
C738        C  0.28148679  0.93651002  0.41210015    -0.15100
C739        C  0.29424918  0.97338978  0.39113864     0.35500
C740        C  0.33701200  0.98023009  0.38353227    -0.26500
C741        C  0.36749797  0.95132343  0.39690268    -0.15700
C742        C  0.35528045  0.91638345  0.42122969     0.36600
N743        N  0.38610697  0.88659282  0.43583994    -0.90000
H744        H  0.30274751  0.88131725  0.44516888     0.17700
H745        H  0.34635146  0.00752014  0.36562936     0.17700
N746        N  0.26397318  0.00276099  0.37520169    -0.89000
H747        H  0.37158083  0.86153132  0.45115033     0.35100
H748        H  0.40438391  0.90151199  0.45846862     0.40200
H749        H  0.26837848  0.00543274  0.34280158     0.39800
H750        H  0.26990054  0.03200243  0.38876581     0.34700
C751        C  0.19634149  0.79247074  0.41799488    -0.27000
C752        C  0.18225026  0.82281761  0.38932617    -0.15100
C753        C  0.16513292  0.80989620  0.35073054     0.35500
C754        C  0.16326538  0.76684062  0.34130519    -0.26500
C755        C  0.17658267  0.73617702  0.37020576    -0.15700
C756        C  0.19325093  0.74939199  0.40905445     0.36600
N757        N  0.20833513  0.71940006  0.43902714    -0.90000
H758        H  0.21009982  0.80229093  0.44744005     0.17700
H759        H  0.15051243  0.75722294  0.31138728     0.17700
N760        N  0.15127052  0.84049771  0.32051536    -0.89000
H761        H  0.19148721  0.72370036  0.46686239     0.35100
H762        H  0.23989951  0.72577630  0.44509413     0.40200
H763        H  0.12434441  0.85506225  0.33265100     0.39800
H764        H  0.14199321  0.82580507  0.29275016     0.34700
C765        C  0.36599650  0.61993569  0.03819074    -0.27000
C766        C  0.38512282  0.64857808  0.06564782    -0.15100
C767        C  0.36049486  0.66816739  0.09694031     0.35500
C768        C  0.31790279  0.65865087  0.10065240    -0.26500
C769        C  0.29860584  0.63013287  0.07346895    -0.15700
C770        C  0.32273807  0.61079833  0.04151881     0.36600
N771        N  0.30354024  0.58174216  0.01305978    -0.90000
H772        H  0.38475968  0.60492791  0.01398904     0.17700
H773        H  0.29972845  0.67378186  0.12525592     0.17700
N774        N  0.37883563  0.69690251  0.12605388    -0.89000
H775        H  0.32567809  0.57010752  0.99166455     0.35100
H776        H  0.29295640  0.55610127  0.03045216     0.40200
H777        H  0.37418407  0.68526353  0.15636680     0.39800
H778        H  0.36290622  0.72564059  0.12363224     0.34700
C779        C  0.15346079  0.63846624  0.18793766    -0.27000
C780        C  0.18607933  0.61142274  0.17525522    -0.15100
C781        C  0.20938410  0.58933839  0.20587260     0.35500
C782        C  0.20133295  0.59683792  0.24861834    -0.26500
C783        C  0.17147164  0.62694808  0.26124397    -0.15700
C784        C  0.14649358  0.64708377  0.23048389     0.36600
N785        N  0.11420150  0.67671349  0.24145362    -0.90000
H786        H  0.13523153  0.65530591  0.16462067     0.17700
H787        H  0.22013271  0.58092044  0.27212206     0.17700
N788        N  0.24215363  0.56058868  0.19337350    -0.89000
H789        H  0.12793040  0.70278712  0.25558411     0.35100
H790        H  0.09399646  0.66260525  0.26305016     0.40200
H791        H  0.22838246  0.53636800  0.17625023     0.39800
H792        H  0.25608020  0.54667937  0.21964604     0.34700
C793        C  0.86617419  0.58979499  0.90326343    -0.27000
C794        C  0.88638694  0.61295991  0.87165945    -0.15100
C795        C  0.86423915  0.64534650  0.85092596     0.35500
C796        C  0.82204588  0.65278587  0.86084290    -0.26500
C797        C  0.80118307  0.62909134  0.89145157    -0.15700
C798        C  0.82352361  0.59744496  0.91334289     0.36600
N799        N  0.80364982  0.57469452  0.94680218    -0.90000
H800        H  0.88350488  0.56541837  0.91963292     0.17700
H801        H  0.80515914  0.67732748  0.84423879     0.17700
N802        N  0.88492215  0.67108383  0.82018477    -0.89000
H803        H  0.82502142  0.55397591  0.96085549     0.35100
H804        H  0.78009161  0.55618717  0.93386106     0.40200
H805        H  0.90838634  0.68787211  0.83558193     0.39800
H806        H  0.86416465  0.69335385  0.80765767     0.34700
C807        C  0.96780744  0.63601677  0.73887353    -0.27000
C808        C  0.99051003  0.60476747  0.76021272    -0.15100
C809        C  0.01883589  0.57903822  0.73742985     0.35500
C810        C  0.02347506  0.58522979  0.69365354    -0.26500
C811        C  0.00173614  0.61773697  0.67282138    -0.15700
C812        C  0.97288601  0.64270888  0.69575033     0.36600
N813        N  0.94800159  0.67431817  0.67495602    -0.90000
H814        H  0.94576140  0.65557939  0.75609427     0.17700
H815        H  0.04459612  0.56517105  0.67592461     0.17700
N816        N  0.04169422  0.54611155  0.75835469    -0.89000
H817        H  0.92845962  0.69003276  0.69629104     0.35100
H818        H  0.92827480  0.65897596  0.65384068     0.40200
H819        H  0.06290463  0.56027172  0.77882082     0.39800
H820        H  0.05974467  0.52898144  0.73679857     0.34700
C821        C  0.63583161  0.91482018  0.73857836    -0.27000
C822        C  0.66447992  0.93055490  0.76783533    -0.15100
C823        C  0.69977855  0.95304533  0.75354688     0.35500
C824        C  0.70702718  0.95725715  0.71056309    -0.26500
C825        C  0.67957513  0.93993240  0.68100157    -0.15700
C826        C  0.64270480  0.91966363  0.69516407     0.36600
N827        N  0.61334405  0.90254750  0.66569519    -0.90000
H828        H  0.60870940  0.89765344  0.74965516     0.17700
H829        H  0.73500693  0.97344758  0.70017625     0.17700
N830        N  0.73002112  0.97006417  0.78192992    -0.89000
H831        H  0.58756947  0.88965741  0.68132895     0.35100
H832        H  0.62836101  0.87777022  0.65003857     0.40200
H833        H  0.74160078  0.94581073  0.80086050     0.39800
H834        H  0.71506423  0.99240574  0.80090290     0.34700
C835        C  0.65111952  0.80066962  0.90541486    -0.27000
C836        C  0.67530762  0.82276976  0.87586559    -0.15100
C837        C  0.70871158  0.80196257  0.85545743     0.35500
C838        C  0.71716215  0.75973147  0.86417484    -0.26500
C839        C  0.69243618  0.73693353  0.89252362    -0.15700
C840        C  0.65894825  0.75756851  0.91347340     0.36600
N841        N  0.63333577  0.73493150  0.94281455    -0.90000
H842        H  0.62548158  0.81670588  0.92126882     0.17700
H843        H  0.74300120  0.74444275  0.84789378     0.17700
N844        N  0.73470110  0.82392963  0.82611392    -0.89000
H845        H  0.61002717  0.75459529  0.95533259     0.35100
H846        H  0.65250178  0.72579184  0.96781312     0.40200
H847        H  0.73322440  0.80830776  0.79731239     0.39800
H848        H  0.76569475  0.82236738  0.83674788     0.34700
C849        C  0.96908549  0.77792572  0.52627203    -0.27000
C850        C  0.99156974  0.80841160  0.54842752    -0.15100
C851        C  0.02444170  0.79554553  0.57536662     0.35500
C852        C  0.03206966  0.75239727  0.58154049    -0.26500
C853        C  0.00853810  0.72193628  0.56047904    -0.15700
C854        C  0.97766022  0.73482480  0.53138125     0.36600
N855        N  0.95323305  0.70419955  0.50926870    -0.90000
H856        H  0.94402186  0.78789711  0.50565040     0.17700
H857        H  0.05581872  0.74238218  0.60375850     0.17700
N858        N  0.04798289  0.82602841  0.59861861    -0.89000
H859        H  0.92973079  0.71885975  0.49161495     0.35100
H860        H  0.97315773  0.68936951  0.48767219     0.40200
H861        H  0.06646299  0.84257456  0.57724060     0.39800
H862        H  0.06897891  0.81112867  0.61903414     0.34700
C863        C  0.85478743  0.94128723  0.53482423    -0.27000
C864        C  0.87667510  0.91147473  0.55907480    -0.15100
C865        C  0.85520037  0.89020384  0.59127871     0.35500
C866        C  0.81272988  0.89906830  0.59896093    -0.26500
C867        C  0.79039117  0.92812511  0.57436171    -0.15700
C868        C  0.81152531  0.94916403  0.54151209     0.36600
N869        N  0.78917930  0.97835228  0.51522096    -0.90000
H870        H  0.87123041  0.95763261  0.50998160     0.17700
H871        H  0.79694790  0.88257033  0.62414528     0.17700
N872        N  0.87673615  0.86016010  0.61704593    -0.89000
H873        H  0.80926702  0.99106134  0.49263126     0.35100
H874        H  0.77893136  0.00328580  0.53402701     0.40200
H875        H  0.86127310  0.83142640  0.61443097     0.39800
H876        H  0.87445808  0.87010221  0.64822852     0.34700
C877        C  0.35677785  0.64410387  0.92128242    -0.27000
C878        C  0.38805356  0.62830434  0.89441424    -0.15100
C879        C  0.37625326  0.60608953  0.85801518     0.35500
C880        C  0.33383619  0.60116332  0.84873858    -0.26500
C881        C  0.30225323  0.61670600  0.87545861    -0.15700
C882        C  0.31389201  0.63812115  0.91257257     0.36600
N883        N  0.28250210  0.65606707  0.93983301    -0.90000
H884        H  0.36591097  0.66167635  0.94886739     0.17700
H885        H  0.32555641  0.58578531  0.81966764     0.17700
N886        N  0.40652764  0.59008776  0.82864436    -0.89000
H887        H  0.29655117  0.67317976  0.96394836     0.35100
H888        H  0.26681413  0.63134706  0.95444155     0.40200
H889        H  0.42499500  0.56735478  0.84357500     0.39800
H890        H  0.42565868  0.61475662  0.81877954     0.34700
C891        C  0.17023280  0.59671534  0.73951185    -0.27000
C892        C  0.20080453  0.62026997  0.76062974    -0.15100
C893        C  0.22462267  0.64986662  0.73785659     0.35500
C894        C  0.21802821  0.65468899  0.69470537    -0.26500
C895        C  0.18799820  0.63097891  0.67326474    -0.15700
C896        C  0.16387762  0.60150841  0.69607685     0.36600
N897        N  0.13196814  0.57710269  0.67634904    -0.90000
H898        H  0.15167815  0.57404154  0.75668466     0.17700
H899        H  0.23656507  0.67742881  0.67763502     0.17700
N900        N  0.25497583  0.67567133  0.75879283    -0.89000
H901        H  0.14604543  0.55772280  0.65384793     0.35100
H902        H  0.11124621  0.59767794  0.66121054     0.40200
H903        H  0.23865834  0.69509593  0.77978058     0.39800
H904        H  0.27008373  0.69550605  0.73752095     0.34700
C905        C  0.31891940  0.95961482  0.53702669    -0.27000
C906        C  0.29267183  0.94145134  0.56732114    -0.15100
C907        C  0.30823518  0.93453608  0.60825890     0.35500
C908        C  0.35051545  0.94238168  0.61675731    -0.26500
C909        C  0.37797462  0.95754837  0.58571545    -0.15700
C910        C  0.36128855  0.96819244  0.54604030     0.36600
N911        N  0.38702948  0.98790652  0.51498120    -0.90000
H912        H  0.30685497  0.96602734  0.50590884     0.17700
H913        H  0.36213232  0.93495916  0.64781301     0.17700
N914        N  0.28250993  0.91856047  0.64176535    -0.89000
H915        H  0.37319257  0.01674406  0.50721145     0.35100
H916        H  0.38709279  0.96914196  0.48812940     0.40200
H917        H  0.25139451  0.91460792  0.63253188     0.39800
H918        H  0.28182694  0.94126970  0.66545951     0.34700
C919        C  0.15765429  0.75784141  0.54311413    -0.27000
C920        C  0.19065817  0.73379724  0.55985452    -0.15100
C921        C  0.22988924  0.75278385  0.56659170     0.35500
C922        C  0.23471044  0.79568845  0.55918887    -0.26500
C923        C  0.20101750  0.82093708  0.54531558    -0.15700
C924        C  0.16252401  0.80120170  0.53521450     0.36600
N925        N  0.12851298  0.82503125  0.51731950    -0.90000
H926        H  0.12775228  0.74297504  0.53718706     0.17700
H927        H  0.26488196  0.80950091  0.56611462     0.17700
N928        N  0.26544588  0.72920208  0.58123895    -0.89000
H929        H  0.10255535  0.80583039  0.51206223     0.35100
H930        H  0.13838326  0.83558617  0.48787153     0.40200
H931        H  0.27088092  0.70430309  0.56048399     0.39800
H932        H  0.25853865  0.71688665  0.61079375     0.34700
C933        C  0.48112173  0.80993133  0.91757634    -0.27000
C934        C  0.51105889  0.82120508  0.88723953    -0.15100
C935        C  0.53524778  0.78936528  0.86757320     0.35500
C936        C  0.52835794  0.74730303  0.87778457    -0.26500
C937        C  0.49607134  0.73584392  0.90545340    -0.15700
C938        C  0.47277496  0.76745978  0.92631390     0.36600
N939        N  0.44003725  0.75630989  0.95530423    -0.90000
H940        H  0.46260333  0.83424988  0.93280146     0.17700
H941        H  0.54644631  0.72327352  0.86160118     0.17700
N942        N  0.56642836  0.79864134  0.83651247    -0.89000
H943        H  0.42619406  0.78324592  0.96824006     0.35100
H944        H  0.45382695  0.73980549  0.98009596     0.40200
H945        H  0.58666596  0.82123671  0.84859273     0.39800
H946        H  0.55162841  0.81105137  0.81003565     0.34700
C947        C  0.46605758  0.91396810  0.71091022    -0.27000
C948        C  0.48944832  0.94470018  0.68992811    -0.15100
C949        C  0.52068198  0.96698043  0.71237663     0.35500
C950        C  0.52778472  0.95716769  0.75491958    -0.26500
C951        C  0.50423317  0.92619766  0.77555036    -0.15700
C952        C  0.47274408  0.90475184  0.75331115     0.36600
N953        N  0.44680042  0.87437182  0.77419430    -0.90000
H954        H  0.44190284  0.89715329  0.69406195     0.17700
H955        H  0.55176187  0.97397746  0.77201402     0.17700
N956        N  0.54487496  0.00017244  0.69382168    -0.89000
H957        H  0.42524391  0.86129176  0.75335278     0.35100
H958        H  0.42919556  0.89032452  0.79698290     0.40200
H959        H  0.53540738  0.00652278  0.66320046     0.39800
H960        H  0.53872925  0.02761171  0.71087384     0.34700
C961        C  0.47628742  0.29136488  0.90535264    -0.27000
C962        C  0.50094756  0.32072803  0.88395896    -0.15100
C963        C  0.53376636  0.30639974  0.85749625     0.35500
C964        C  0.53958854  0.26288966  0.85137302    -0.26500
C965        C  0.51353943  0.23369860  0.87141430    -0.15700
C966        C  0.48223123  0.24830041  0.89955227     0.36600
N967        N  0.45426100  0.22035269  0.92082496    -0.90000
H968        H  0.45118107  0.30203074  0.92587373     0.17700
H969        H  0.56368924  0.25171346  0.82995798     0.17700
N970        N  0.55974096  0.33589343  0.83550488    -0.89000
H971        H  0.47169193  0.20119254  0.94101961     0.35100
H972        H  0.43918633  0.20165694  0.89860117     0.40200
H973        H  0.54073048  0.35188469  0.81401482     0.39800
H974        H  0.58281092  0.32016900  0.81801059     0.34700
C975        C  0.47154468  0.09426023  0.75433298    -0.27000
C976        C  0.50252984  0.12390854  0.76392139    -0.15100
C977        C  0.52458614  0.14333204  0.73096101     0.35500
C978        C  0.51433031  0.13413180  0.68919890    -0.26500
C979        C  0.48164801  0.10641766  0.67953845    -0.15700
C980        C  0.46061307  0.08554629  0.71247615     0.36600
N981        N  0.42811646  0.05585427  0.70332550    -0.90000
H982        H  0.45469759  0.07901116  0.77959833     0.17700
H983        H  0.53094554  0.15012183  0.66423526     0.17700
N984        N  0.55742543  0.17249270  0.73975643    -0.89000
H985        H  0.41578053  0.04333099  0.73102283     0.35100
H986        H  0.44198529  0.03083478  0.68707550     0.40200
H987        H  0.54945970  0.20125469  0.72596488     0.39800
H988        H  0.58486359  0.16146438  0.72532426     0.34700
C989        C  0.19145328  0.30254985  0.53841918    -0.27000
C990        C  0.15996832  0.31759187  0.56544084    -0.15100
C991        C  0.13336700  0.28844942  0.58576363     0.35500
C992        C  0.13960027  0.24520613  0.57960829    -0.26500
C993        C  0.17345284  0.23019718  0.55549567    -0.15700
C994        C  0.19917089  0.25920492  0.53407626     0.36600
N995        N  0.23424001  0.24449351  0.50954327    -0.90000
H996        H  0.21207920  0.32471074  0.52307035     0.17700
H997        H  0.11965260  0.22324805  0.59612638     0.17700
N998        N  0.10027692  0.30180415  0.61334960    -0.89000
H999        H  0.24931991  0.26948188  0.49470823     0.35100
H1000       H  0.22263482  0.22484192  0.48612729     0.40200
H1001       H  0.08131394  0.32340432  0.59740386     0.39800
H1002       H  0.11338405  0.31677618  0.63928562     0.34700
C1003       C  0.31166263  0.14919125  0.54855770    -0.27000
C1004       C  0.28215272  0.12098484  0.56489965    -0.15100
C1005       C  0.29655765  0.08432324  0.58574923     0.35500
C1006       C  0.34005912  0.07771862  0.59085864    -0.26500
C1007       C  0.36917890  0.10651000  0.57498341    -0.15700
C1008       C  0.35465764  0.14219512  0.55292887     0.36600
N1009       N  0.38275417  0.17296686  0.53625439    -0.90000
H1010       H  0.30128976  0.17741805  0.53253081     0.17700
H1011       H  0.35131813  0.05045140  0.60793922     0.17700
N1012       N  0.26725646  0.05478204  0.60294155    -0.89000
H1013       H  0.40172653  0.15872402  0.51348599     0.35100
H1014       H  0.40170536  0.18404433  0.56052570     0.40200
H1015       H  0.25095961  0.06989131  0.62720279     0.39800
H1016       H  0.28310563  0.02934391  0.61653769     0.34700
C1017       C  0.37568284  0.45734351  0.85105800    -0.27000
C1018       C  0.38867480  0.42614505  0.87943335    -0.15100
C1019       C  0.35804950  0.40227262  0.90057319     0.35500
C1020       C  0.31529288  0.40960625  0.89280034    -0.26500
C1021       C  0.30239018  0.43934717  0.86300104    -0.15700
C1022       C  0.33283230  0.46363209  0.84203133     0.36600
N1023       N  0.32007707  0.49411324  0.81127605    -0.90000
H1024       H  0.39907803  0.47551915  0.83446985     0.17700
H1025       H  0.29213182  0.39071410  0.90893269     0.17700
N1026       N  0.37022531  0.37034126  0.92984657    -0.89000
H1027       H  0.34616246  0.50982523  0.79918075     0.35100
H1028       H  0.30143958  0.51654430  0.82654158     0.40200
H1029       H  0.35827805  0.34171986  0.91934977     0.39800
H1030       H  0.35600250  0.37727457  0.95859439     0.34700
C1031       C  0.20946667  0.46502740  0.72710070    -0.27000
C1032       C  0.19067262  0.43960407  0.75759699    -0.15100
C1033       C  0.16200551  0.40842555  0.74527852     0.35500
C1034       C  0.15310872  0.40300706  0.70253529    -0.26500
C1035       C  0.17279869  0.42752776  0.67170680    -0.15700
C1036       C  0.20082835  0.45950137  0.68443974     0.36600
N1037       N  0.22268243  0.48540655  0.65498060    -0.90000
H1038       H  0.23167146  0.48887975  0.73648371     0.17700
H1039       H  0.13158045  0.37856597  0.69313679     0.17700
N1040       N  0.14366578  0.38097826  0.77598596    -0.89000
H1041       H  0.20078752  0.50320283  0.63815832     0.35100
H1042       H  0.23952402  0.46610119  0.63431440     0.40200
H1043       H  0.16802477  0.36362441  0.78969698     0.39800
H1044       H  0.12413551  0.35912158  0.76152432     0.34700
C1045       C  0.97583537  0.46900427  0.72544920    -0.27000
C1046       C  0.99364096  0.44206933  0.75544308    -0.15100
C1047       C  0.01616479  0.40611401  0.74230384     0.35500
C1048       C  0.01949979  0.39719714  0.69933997    -0.26500
C1049       C  0.00082776  0.42342680  0.66922515    -0.15700
C1050       C  0.97929890  0.46018398  0.68232857     0.36600
N1051       N  0.95944645  0.48732348  0.65213959    -0.90000
H1052       H  0.95810650  0.49630455  0.73583477     0.17700
H1053       H  0.03603351  0.36904307  0.68929445     0.17700
N1054       N  0.03296005  0.37721126  0.77268718    -0.89000
H1055       H  0.94545566  0.51317633  0.66700482     0.35100
H1056       H  0.93516716  0.47046309  0.63814447     0.40200
H1057       H  0.05747405  0.39229799  0.78814964     0.39800
H1058       H  0.04617436  0.35096235  0.75785249     0.34700
C1059       C  0.85952653  0.47539339  0.85480780    -0.27000
C1060       C  0.88876493  0.44445292  0.86651491    -0.15100
C1061       C  0.87466212  0.40721518  0.88611350     0.35500
C1062       C  0.83169434  0.40181836  0.89284248    -0.26500
C1063       C  0.80197316  0.43164059  0.87926730    -0.15700
C1064       C  0.81619994  0.46961174  0.86107990     0.36600
N1065       N  0.78692771  0.50113406  0.84693194    -0.90000
H1066       H  0.87057102  0.50376663  0.83968748     0.17700
H1067       H  0.82140744  0.37289182  0.90742226     0.17700
N1068       N  0.90234200  0.37321588  0.89778346    -0.89000
H1069       H  0.80267872  0.52579009  0.83217618     0.35100
H1070       H  0.77265577  0.51421666  0.87344949     0.40200
H1071       H  0.93356308  0.37908769  0.89023504     0.39800
H1072       H  0.89385058  0.34687216  0.88024547     0.34700
C1073       C  0.94304846  0.24890184  0.57908801    -0.27000
C1074       C  0.97199471  0.22328545  0.55748822    -0.15100
C1075       C  0.00848834  0.24204431  0.54022938     0.35500
C1076       C  0.01442406  0.28554984  0.54405822    -0.26500
C1077       C  0.98598637  0.31054184  0.56682643    -0.15700
C1078       C  0.94994154  0.29205812  0.58444893     0.36600
N1079       N  0.92048489  0.31729622  0.60789376    -0.90000
H1080       H  0.91522243  0.23502870  0.59274273     0.17700
H1081       H  0.04239248  0.29957230  0.53082349     0.17700
N1082       N  0.04012136  0.21794820  0.51889450    -0.89000
H1083       H  0.89584683  0.29892261  0.61919040     0.35100
H1084       H  0.90721918  0.33913379  0.58722217     0.40200
H1085       H  0.02581465  0.20025089  0.49541674     0.39800
H1086       H  0.05424264  0.19753210  0.54038649     0.34700
C1087       C  0.83870158  0.13366251  0.52759333    -0.27000
C1088       C  0.86793796  0.11014466  0.55083412    -0.15100
C1089       C  0.85365163  0.07717829  0.57681128     0.35500
C1090       C  0.81027663  0.07144281  0.58214251    -0.26500
C1091       C  0.78104545  0.09638123  0.56050025    -0.15700
C1092       C  0.79537542  0.12657807  0.53146824     0.36600
N1093       N  0.76599869  0.15186758  0.50817563    -0.90000
H1094       H  0.84973706  0.15834415  0.50700298     0.17700
H1095       H  0.79909710  0.04792548  0.60399434     0.17700
N1096       N  0.88291507  0.05131856  0.59962453    -0.89000
H1097       H  0.78175555  0.17432122  0.49025250     0.35100
H1098       H  0.75112744  0.13212998  0.48673463     0.40200
H1099       H  0.89868708  0.03244620  0.57775497     0.39800
H1100       H  0.86700408  0.03062617  0.61944763     0.34700
C1101       C  0.72067457  0.29701162  0.85242915    -0.27000
C1102       C  0.69487015  0.32194360  0.87818331    -0.15100
C1103       C  0.66003788  0.30344367  0.89834018     0.35500
C1104       C  0.65113847  0.26067572  0.89143299    -0.26500
C1105       C  0.67631772  0.23648834  0.86429678    -0.15700
C1106       C  0.71161179  0.25478878  0.84520615     0.36600
N1107       N  0.73868916  0.23030861  0.81863801    -0.90000
H1108       H  0.74770227  0.31055476  0.83692052     0.17700
H1109       H  0.62413609  0.24664624  0.90653882     0.17700
N1110       N  0.63430687  0.32761918  0.92640630    -0.89000
H1111       H  0.76896858  0.23104969  0.83118276     0.35100
H1112       H  0.73953026  0.24456641  0.78910573     0.40200
H1113       H  0.63503069  0.31309068  0.95581154     0.39800
H1114       H  0.60341053  0.32677334  0.91550653     0.34700
C1115       C  0.65856105  0.08010431  0.69791947    -0.27000
C1116       C  0.67663976  0.11010655  0.67130269    -0.15100
C1117       C  0.68719346  0.14979849  0.68744317     0.35500
C1118       C  0.68056151  0.15854595  0.72972672    -0.26500
C1119       C  0.66378796  0.12842424  0.75730752    -0.15700
C1120       C  0.65193830  0.08882279  0.74093352     0.36600
N1121       N  0.63325563  0.05776190  0.76768235    -0.90000
H1122       H  0.65021188  0.04970266  0.68525920     0.17700
H1123       H  0.68973904  0.18918729  0.74110426     0.17700
N1124       N  0.70468985  0.18202685  0.66145504    -0.89000
H1125       H  0.62715499  0.03027923  0.75086012     0.35100
H1126       H  0.60414825  0.06958492  0.77756760     0.40200
H1127       H  0.68412270  0.18778381  0.63657128     0.39800
H1128       H  0.73333323  0.17135776  0.64928971     0.34700
loop_ 
_geom_bond_atom_site_label_1 
_geom_bond_atom_site_label_2 
_geom_bond_distance 
_geom_bond_site_symmetry_2 
_ccdc_geom_bond_type 
C1            N2   1.357       .  A
C1            N6   1.362       .  A
C1         C1119   1.493       .  S
N2            C3   1.354       .  A
C3            N4   1.356       .  A
C3         C1105   1.474       .  S
N4            C5   1.360       .  A
C5            N6   1.363       .  A
C5          C442   1.462       .  S
C7            N8   1.360       .  A
C7           N12   1.356       .  A
C7         C1088   1.480       .  S
N8            C9   1.361       .  A
C9           N10   1.359       .  A
C9         C1074   1.489       .  S
N10          C11   1.358       .  A
C11          N12   1.355       .  A
C11         C399   1.455   1_655  S
C13          N14   1.357       .  A
C13          N18   1.356       .  A
C13        C1060   1.469       .  S
N14          C15   1.356   1_655  A
C15          N16   1.357       .  A
C15         C428   1.456       .  S
N16          C17   1.359   1_455  A
C17          N18   1.357       .  A
C17        C1046   1.473       .  S
C19          N20   1.356       .  A
C19          N24   1.358       .  A
C19        C1063   1.486       .  S
N20          C21   1.356       .  A
C21          N22   1.359       .  A
C21         C370   1.453       .  S
N22          C23   1.358       .  A
C23          N24   1.358       .  A
C23        C1102   1.481       .  S
C25          N26   1.356   1_455  A
C25          N30   1.356       .  A
C25        C1049   1.479       .  S
N26          C27   1.357       .  A
C27          N28   1.361       .  A
C27        C1077   1.477       .  S
N28          C29   1.362   1_655  A
C29          N30   1.358       .  A
C29         C341   1.460       .  S
C31          N32   1.357       .  A
C31          N36   1.358       .  A
C31        C1116   1.473       .  S
N32          C33   1.357       .  A
C33          N34   1.357       .  A
C33        C1091   1.476       .  S
N34          C35   1.357       .  A
C35          N36   1.360       .  A
C35         C329   1.458       .  S
C37          N38   1.359       .  A
C37          N42   1.360       .  A
C37        C1021   1.479       .  S
N38          C39   1.358       .  A
C39          N40   1.356       .  A
C39        C1032   1.474       .  S
N40          C41   1.356       .  A
C41          N42   1.358       .  A
C41         C425   1.458       .  S
C43          N44   1.356       .  A
C43          N48   1.356       .  A
C43        C1004   1.484       .  S
N44          C45   1.357       .  A
C45          N46   1.361       .  A
C45         C993   1.484       .  S
N46          C47   1.362       .  A
C47          N48   1.358       .  A
C47         C398   1.458       .  S
C49          N50   1.361       .  A
C49          N54   1.362       .  A
C49         C976   1.482       .  S
N50          C51   1.358       .  A
C51          N52   1.353       .  A
C51         C412   1.456       .  S
N52          C53   1.354       .  A
C53          N54   1.360       .  A
C53         C965   1.477       .  S
C55          N56   1.361       .  A
C55          N60   1.356       .  A
C55        C1018   1.482       .  S
N56          C57   1.361       .  A
C57          N58   1.359       .  A
C57         C371   1.462       .  S
N58          C59   1.358       .  A
C59          N60   1.357       .  A
C59         C962   1.480       .  S
C61          N62   1.360       .  A
C61          N66   1.360       .  A
C61         C979   1.483       .  S
N62          C63   1.358       .  A
C63          N64   1.355       .  A
C63         C327   1.458       .  S
N64          C65   1.356       .  A
C65          N66   1.359       .  A
C65        C1007   1.473       .  S
C67          N68   1.356       .  A
C67          N72   1.358       .  A
C67        C1035   1.483       .  S
N68          C69   1.356       .  A
C69          N70   1.362       .  A
C69         C315   1.463       .  S
N70          C71   1.362       .  A
C71          N72   1.357       .  A
C71         C990   1.482       .  S
C73          N74   1.359       .  A
C73          N78   1.357       .  A
C73         C951   1.482       .  S
N74          C75   1.362       .  A
C75          N76   1.358       .  A
C75         C414   1.461       .  S
N76          C77   1.358       .  A
C77          N78   1.356       .  A
C77         C934   1.478       .  S
C79          N80   1.357       .  A
C79          N84   1.357       .  A
C79         C906   1.474       .  S
N80          C81   1.360       .  A
C81          N82   1.360       .  A
C81         C400   1.463       .  S
N82          C83   1.361       .  A
C83          N84   1.360       .  A
C83         C923   1.496       .  S
C85          N86   1.362       .  A
C85          N90   1.357       .  A
C85         C892   1.485       .  S
N86          C87   1.363       .  A
C87          N88   1.357       .  A
C87         C454   1.461       .  S
N88          C89   1.355       .  A
C89          N90   1.356       .  A
C89         C881   1.484       .  S
C91          N92   1.359       .  A
C91          N96   1.359       .  A
C91         C937   1.478       .  S
N92          C93   1.356       .  A
C93          N94   1.355       .  A
C93         C369   1.456       .  S
N94          C95   1.357       .  A
C95          N96   1.358       .  A
C95         C878   1.475       .  S
C97          N98   1.361       .  A
C97         N102   1.358       .  A
C97         C895   1.487       .  S
N98          C99   1.363       .  A
C99         N100   1.361       .  A
C99         C313   1.465       .  S
N100        C101   1.358       .  A
C101        N102   1.355       .  A
C101        C920   1.476       .  S
C103        N104   1.357       .  A
C103        N108   1.360       .  A
C103        C948   1.483       .  S
N104        C105   1.357       .  A
C105        N106   1.360       .  A
C105        C909   1.492       .  S
N106        C107   1.361       .  A
C107        N108   1.362       .  A
C107        C358   1.464       .  S
C109        N110   1.360       .  A
C109        N114   1.361       .  A
C109        C864   1.484       .  S
N110        C111   1.359       .  A
C111        N112   1.357   1_655  A
C111        C850   1.483       .  S
N112        C113   1.357   1_455  A
C113        N114   1.362       .  A
C113        C397   1.463   1_655  S
C115        N116   1.356       .  A
C115        N120   1.355       .  A
C115        C822   1.474       .  S
N116        C117   1.360       .  A
C117        N118   1.362       .  A
C117        C836   1.482       .  S
N118        C119   1.363       .  A
C119        N120   1.356       .  A
C119        C439   1.460       .  S
C121        N122   1.362   1_655  A
C121        N126   1.356       .  A
C121        C808   1.487       .  S
N122        C123   1.365       .  A
C123        N124   1.361   1_455  A
C123        C455   1.466       .  S
N124        C125   1.357       .  A
C125        N126   1.355       .  A
C125        C794   1.480       .  S
C127        N128   1.364       .  A
C127        N132   1.360       .  A
C127        C811   1.489       .  S
N128        C129   1.365       .  A
C129        N130   1.357       .  A
C129        C343   1.464       .  S
N130        C131   1.355       .  A
C131        N132   1.356       .  A
C131        C853   1.480       .  S
C133        N134   1.361       .  A
C133        N138   1.356       .  A
C133        C839   1.485       .  S
N134        C135   1.364       .  A
C135        N136   1.362       .  A
C135        C372   1.467       .  S
N136        C137   1.360       .  A
C137        N138   1.356       .  A
C137        C797   1.483       .  S
C139        N140   1.356       .  A
C139        N144   1.359       .  A
C139        C825   1.484       .  S
N140        C141   1.357       .  A
C141        N142   1.362       .  A
C141        C356   1.460       .  S
N142        C143   1.362       .  A
C143        N144   1.360       .  A
C143        C867   1.486       .  S
C145        N146   1.357       .  A
C145        N150   1.361       .  A
C145        C769   1.482       .  S
N146        C147   1.354       .  A
C147        N148   1.358       .  A
C147        C780   1.478       .  S
N148        C149   1.361       .  A
C149        N150   1.363       .  A
C149        C456   1.464       .  S
C151        N152   1.359       .  A
C151        N156   1.359       .  A
C151        C738   1.484       .  S
N152        C153   1.357       .  A
C153        N154   1.358       .  A
C153        C386   1.461       .  S
N154        C155   1.359       .  A
C155        N156   1.357       .  A
C155        C752   1.476       .  S
C157        N158   1.361       .  A
C157        N162   1.358       .  A
C157        C713   1.479       .  S
N158        C159   1.363       .  A
C159        N160   1.358       .  A
C159        C411   1.464       .  S
N160        C161   1.358       .  A
C161        N162   1.360       .  A
C161        C724   1.495       .  S
C163        N164   1.356       .  A
C163        N168   1.357       .  A
C163        C727   1.473       .  S
N164        C165   1.358       .  A
C165        N166   1.361       .  A
C165        C766   1.484       .  S
N166        C167   1.362       .  A
C167        N168   1.360       .  A
C167        C299   1.464       .  S
C169        N170   1.360       .  A
C169        N174   1.364       .  A
C169        C710   1.501       .  S
N170        C171   1.359       .  A
C171        N172   1.354       .  A
C171        C741   1.476       .  S
N172        C173   1.355       .  A
C173        N174   1.362       .  A
C173        C355   1.461       .  S
C175        N176   1.360       .  A
C175        N180   1.359       .  A
C175        C755   1.489       .  S
N176        C177   1.358       .  A
C177        N178   1.358       .  A
C177        C783   1.479       .  S
N178        C179   1.358       .  A
C179        N180   1.357       .  A
C179        C316   1.458       .  S
C181        N182   1.359       .  A
C181        N186   1.359       .  A
C181        C685   1.477       .  S
N182        C183   1.359       .  A
C183        N184   1.359       .  A
C183        C696   1.484       .  S
N184        C185   1.359       .  A
C185        N186   1.358       .  A
C185        C441   1.460       .  S
C187        N188   1.356       .  A
C187        N192   1.357       .  A
C187        C657   1.476       .  S
N188        C189   1.355       .  A
C189        N190   1.362       .  A
C189        C383   1.461   1_655  S
N190        C191   1.364       .  A
C191        N192   1.359       .  A
C191        C668   1.496       .  S
C193        N194   1.359       .  A
C193        N198   1.358       .  A
C193        C643   1.495       .  S
N194        C195   1.360       .  A
C195        N196   1.361   1_655  A
C195        C629   1.490       .  S
N196        C197   1.363       .  A
C197        N198   1.359   1_455  A
C197        C453   1.465       .  S
C199        N200   1.360       .  A
C199        N204   1.361       .  A
C199        C699   1.483       .  S
N200        C201   1.357       .  A
C201        N202   1.359       .  A
C201        C302   1.464       .  S
N202        C203   1.360       .  A
C203        N204   1.360       .  A
C203        C640   1.478       .  S
C205        N206   1.356       .  A
C205        N210   1.358       .  A
C205        C671   1.478   1_455  S
N206        C207   1.359       .  A
C207        N208   1.363       .  A
C207        C626   1.489       .  S
N208        C209   1.365       .  A
C209        N210   1.361       .  A
C209        C342   1.471       .  S
C211        N212   1.355       .  A
C211        N216   1.357       .  A
C211        C654   1.476       .  S
N212        C213   1.355       .  A
C213        N214   1.360       .  A
C213        C357   1.457       .  S
N214        C215   1.361       .  A
C215        N216   1.359       .  A
C215        C682   1.481       .  S
C217        N218   1.358   1_655  A
C217        N222   1.362       .  A
C217        C598   1.488       .  S
N218        C219   1.355   1_455  A
C219        N220   1.355       .  A
C219        C426   1.454   1_655  S
N220        C221   1.356       .  A
C221        N222   1.361       .  A
C221        C612   1.480       .  S
C223        N224   1.358       .  A
C223        N228   1.361       .  A
C223        C584   1.485       .  S
N224        C225   1.357       .  A
C225        N226   1.360       .  A
C225        C570   1.489       .  S
N226        C227   1.362       .  A
C227        N228   1.364       .  A
C227        C385   1.468   1_655  S
C229        N230   1.359       .  A
C229        N234   1.362       .  A
C229        C545   1.499       .  S
N230        C231   1.358       .  A
C231        N232   1.360       .  A
C231        C440   1.464       .  S
N232        C233   1.361       .  A
C233        N234   1.361       .  A
C233        C556   1.489       .  S
C235        N236   1.357       .  A
C235        N240   1.361       .  A
C235        C615   1.485       .  S
N236        C237   1.356       .  A
C237        N238   1.359       .  A
C237        C300   1.463       .  S
N238        C239   1.362       .  A
C239        N240   1.360       .  A
C239        C559   1.489       .  S
C241        N242   1.364       .  A
C241        N246   1.358       .  A
C241        C587   1.493       .  S
N242        C243   1.366       .  A
C243        N244   1.362       .  A
C243        C328   1.468       .  S
N244        C245   1.357       .  A
C245        N246   1.353       .  A
C245        C542   1.474       .  S
C247        N248   1.353   1_655  A
C247        N252   1.358       .  A
C247        C601   1.472       .  S
N248        C249   1.355       .  A
C249        N250   1.361   1_455  A
C249        C344   1.458       .  S
N250        C251   1.362       .  A
C251        N252   1.359       .  A
C251        C573   1.488       .  S
C253        N254   1.358       .  A
C253        N258   1.356       .  A
C253        C531   1.470       .  S
N254        C255   1.360       .  A
C255        N256   1.359       .  A
C255        C517   1.473       .  S
N256        C257   1.359       .  A
C257        N258   1.355       .  A
C257        C427   1.458       .  S
C259        N260   1.354       .  A
C259        N264   1.356       .  A
C259        C503   1.488       .  S
N260        C261   1.356       .  A
C261        N262   1.363       .  A
C261        C413   1.457       .  S
N262        C263   1.362       .  A
C263        N264   1.358       .  A
C263        C486   1.491       .  S
C265        N266   1.360       .  A
C265        N270   1.358       .  A
C265        C458   1.480       .  S
N266        C267   1.361       .  A
C267        N268   1.358       .  A
C267        C384   1.463       .  S
N268        C269   1.358       .  A
C269        N270   1.360       .  A
C269        C472   1.482       .  S
C271        N272   1.359       .  A
C271        N276   1.365       .  A
C271        C461   1.491       .  S
N272        C273   1.356       .  A
C273        N274   1.354       .  A
C273        C500   1.469       .  S
N274        C275   1.354       .  A
C275        N276   1.363       .  A
C275        C330   1.461       .  S
C277        N278   1.360       .  A
C277        N282   1.363       .  A
C277        C514   1.491       .  S
N278        C279   1.357       .  A
C279        N280   1.356       .  A
C279        C475   1.480       .  S
N280        C281   1.356       .  A
C281        N282   1.361       .  A
C281        C314   1.462       .  S
C283        N284   1.360       .  A
C283        N288   1.356       .  A
C283        C528   1.490       .  S
N284        C285   1.362       .  A
C285        N286   1.363       .  A
C285        C301   1.464       .  S
N286        C287   1.359       .  A
C287        N288   1.353       .  A
C287        C489   1.474       .  S
O289       Cu297   2.011       .  S
O289        C299   1.274       .  A
O290       Cu297   2.013       .  S
O290        C300   1.275       .  A
O291       Cu297   2.012       .  S
O291        C301   1.275       .  A
O292       Cu297   2.013       .  S
O292        C302   1.275       .  A
O293       Cu298   2.020       .  S
O293        C302   1.277       .  A
O294       Cu298   2.017       .  S
O294        C301   1.278       .  A
O295       Cu298   2.012       .  S
O295        C300   1.277       .  A
O296       Cu298   2.021       .  S
O296        C299   1.278       .  A
Cu297      Cu298   2.373       .  S
O303       Cu311   2.012       .  S
O303        C313   1.275       .  A
O304       Cu311   2.006       .  S
O304        C314   1.275       .  A
O305       Cu311   2.014       .  S
O305        C315   1.277       .  A
O306       Cu311   2.010       .  S
O306        C316   1.276       .  A
O307       Cu312   2.006       .  S
O307        C316   1.276       .  A
O308       Cu312   2.014       .  S
O308        C315   1.277       .  A
O309       Cu312   2.018       .  S
O309        C314   1.278       .  A
O310       Cu312   2.024       .  S
O310        C313   1.279       .  A
Cu311      Cu312   2.377       .  S
O317       Cu325   2.003       .  S
O317        C327   1.274       .  A
O318       Cu325   2.015       .  S
O318        C328   1.276       .  A
O319       Cu325   2.005       .  S
O319        C329   1.275       .  A
O320       Cu325   2.008       .  S
O320        C330   1.275       .  A
O321       Cu326   2.017       .  S
O321        C330   1.278       .  A
O322       Cu326   2.010       .  S
O322        C329   1.277       .  A
O323       Cu326   2.025       .  S
O323        C328   1.279       .  A
O324       Cu326   2.015       .  S
O324        C327   1.277       .  A
Cu325      Cu326   2.375       .  S
O331       Cu339   2.014       .  S
O331        C341   1.276       .  A
O332       Cu339   2.025       .  S
O332        C342   1.278       .  A
O333       Cu339   2.018       .  S
O333        C343   1.277       .  A
O334       Cu339   2.008       .  S
O334        C344   1.275       .  A
O335       Cu340   2.010       .  S
O335        C344   1.277   1_655  A
O336       Cu340   2.012       .  S
O336        C343   1.277   1_655  A
O337       Cu340   2.022       .  S
O337        C342   1.278   1_655  A
O338       Cu340   2.008       .  S
O338        C341   1.277   1_655  A
Cu339      Cu340   2.376   1_455  S
O345       Cu353   2.008       .  S
O345        C355   1.275       .  A
O346       Cu353   2.010       .  S
O346        C356   1.275       .  A
O347       Cu353   1.996       .  S
O347        C357   1.274       .  A
O348       Cu353   2.007       .  S
O348        C358   1.274       .  A
O349       Cu354   2.024       .  S
O349        C358   1.279       .  A
O350       Cu354   2.017       .  S
O350        C357   1.278       .  A
O351       Cu354   2.015       .  S
O351        C356   1.277       .  A
O352       Cu354   2.013       .  S
O352        C355   1.277       .  A
Cu353      Cu354   2.376       .  S
O359       Cu367   2.007       .  S
O359        C369   1.276       .  A
O360       Cu367   2.015       .  S
O360        C370   1.277       .  A
O361       Cu367   2.020       .  S
O361        C371   1.278       .  A
O362       Cu367   2.023       .  S
O362        C372   1.278       .  A
O363       Cu368   2.014       .  S
O363        C372   1.274       .  A
O364       Cu368   2.008       .  S
O364        C371   1.275       .  A
O365       Cu368   1.993       .  S
O365        C370   1.272       .  A
O366       Cu368   2.001       .  S
O366        C369   1.274       .  A
Cu367      Cu368   2.375       .  S
O373       Cu381   2.016   1_565  S
O373        C383   1.276       .  A
O374       Cu381   2.014       .  S
O374        C384   1.277       .  A
O375       Cu381   2.013       .  S
O375        C385   1.276       .  A
O376       Cu381   2.006   1_565  S
O376        C386   1.274       .  A
O377       Cu382   2.016   1_565  S
O377        C386   1.277       .  A
O378       Cu382   2.026       .  S
O378        C385   1.280       .  A
O379       Cu382   2.015       .  S
O379        C384   1.277       .  A
O380       Cu382   2.008   1_565  S
O380        C383   1.276       .  A
Cu381      Cu382   2.376       .  S
O387       Cu395   2.014   1_565  S
O387        C397   1.277       .  A
O388       Cu395   2.006       .  S
O388        C398   1.276       .  A
O389       Cu395   2.010       .  S
O389        C399   1.277       .  A
O390       Cu395   2.020   1_565  S
O390        C400   1.278       .  A
O391       Cu396   2.010   1_565  S
O391        C400   1.274       .  A
O392       Cu396   2.000       .  S
O392        C399   1.275       .  A
O393       Cu396   2.010       .  S
O393        C398   1.277       .  A
O394       Cu396   2.014   1_565  S
O394        C397   1.275       .  A
Cu395      Cu396   2.377       .  S
O401       Cu409   2.009   1_564  S
O401        C411   1.275       .  A
O402       Cu409   1.998       .  S
O402        C412   1.273       .  A
O403       Cu409   2.003   1_554  S
O403        C413   1.275       .  A
O404       Cu409   2.007   1_565  S
O404        C414   1.274       .  A
O405       Cu410   2.015   1_565  S
O405        C414   1.277       .  A
O406       Cu410   2.012   1_554  S
O406        C413   1.277       .  A
O407       Cu410   2.013       .  S
O407        C412   1.277       .  A
O408       Cu410   2.022   1_564  S
O408        C411   1.278       .  A
Cu409      Cu410   2.375       .  S
O415       Cu423   2.000       .  S
O415        C425   1.275       .  A
O416       Cu423   1.998   1_554  S
O416        C426   1.273       .  A
O417       Cu423   2.000   1_554  S
O417        C427   1.274       .  A
O418       Cu423   1.998       .  S
O418        C428   1.272       .  A
O419       Cu424   2.016       .  S
O419        C428   1.278       .  A
O420       Cu424   2.014   1_554  S
O420        C427   1.278       .  A
O421       Cu424   2.008   1_554  S
O421        C426   1.276       .  A
O422       Cu424   2.016       .  S
O422        C425   1.277       .  A
Cu423      Cu424   2.377       .  S
O429       Cu437   2.020   1_565  S
O429        C439   1.278       .  A
O430       Cu437   2.026   1_554  S
O430        C440   1.279       .  A
O431       Cu437   2.017   1_564  S
O431        C441   1.278       .  A
O432       Cu437   2.018       .  S
O432        C442   1.278       .  A
O433       Cu438   2.009       .  S
O433        C442   1.274       .  A
O434       Cu438   2.002   1_564  S
O434        C441   1.275       .  A
O435       Cu438   2.005   1_554  S
O435        C440   1.275       .  A
O436       Cu438   2.003   1_565  S
O436        C439   1.273       .  A
Cu437      Cu438   2.375       .  S
O443       Cu451   2.017   1_554  S
O443        C453   1.277       .  A
O444       Cu451   2.010       .  S
O444        C454   1.277       .  A
O445       Cu451   2.020       .  S
O445        C455   1.278       .  A
O446       Cu451   2.024   1_554  S
O446        C456   1.279       .  A
O447       Cu452   2.008   1_554  S
O447        C456   1.275       .  A
O448       Cu452   2.012       .  S
O448        C455   1.274       .  A
O449       Cu452   2.014       .  S
O449        C454   1.276       .  A
O450       Cu452   2.017   1_554  S
O450        C453   1.275       .  A
Cu451      Cu452   2.374       .  S
C457        C458   1.400       .  A
C457        C462   1.408       .  A
C457        H464   1.084       .  S
C458        C459   1.412       .  A
C459        C460   1.403       .  A
C459        N466   1.432       .  S
C460        C461   1.407       .  A
C460        H465   1.084       .  S
C461        C462   1.418       .  A
C462        N463   1.438       .  S
N463        H467   1.046       .  S
N463        H468   1.045       .  S
N466        H469   1.046       .  S
N466        H470   1.044       .  S
C471        C472   1.401       .  A
C471        C476   1.402       .  A
C471        H478   1.078       .  S
C472        C473   1.414       .  A
C473        C474   1.409       .  A
C473        N480   1.438       .  S
C474        C475   1.405       .  A
C474        H479   1.084       .  S
C475        C476   1.412       .  A
C476        N477   1.438       .  S
N477        H481   1.045       .  S
N477        H482   1.045       .  S
N480        H483   1.044       .  S
N480        H484   1.046       .  S
C485        C486   1.406       .  A
C485        C490   1.395       .  A
C485        H492   1.084       .  S
C486        C487   1.419       .  A
C487        C488   1.416       .  A
C487        N494   1.437       .  S
C488        C489   1.404       .  A
C488        H493   1.084   1_554  S
C489        C490   1.403       .  A
C490        N491   1.434       .  S
N491        H495   1.046       .  S
N491        H496   1.046       .  S
N494        H497   1.046       .  S
N494        H498   1.046   1_554  S
C499        C500   1.401       .  A
C499        C504   1.407       .  A
C499        H506   1.084       .  S
C500        C501   1.415       .  A
C501        C502   1.397       .  A
C501        N508   1.440       .  S
C502        C503   1.406       .  A
C502        H507   1.084       .  S
C503        C504   1.418       .  A
C504        N505   1.438       .  S
N505        H509   1.046       .  S
N505        H510   1.044       .  S
N508        H511   1.041       .  S
N508        H512   1.046       .  S
C513        C514   1.408       .  A
C513        C518   1.402       .  A
C513        H520   1.083       .  S
C514        C515   1.417       .  A
C515        C516   1.411       .  A
C515        N522   1.437       .  S
C516        C517   1.402       .  A
C516        H521   1.084       .  S
C517        C518   1.406       .  A
C518        N519   1.439       .  S
N519        H523   1.046       .  S
N519        H524   1.045       .  S
N522        H525   1.046       .  S
N522        H526   1.046       .  S
C527        C528   1.407       .  A
C527        C532   1.392       .  A
C527        H534   1.083       .  S
C528        C529   1.419       .  A
C529        C530   1.412       .  A
C529        N536   1.437       .  S
C530        C531   1.402       .  A
C530        H535   1.084       .  S
C531        C532   1.407       .  A
C532        N533   1.434       .  S
N533        H537   1.045       .  S
N533        H538   1.046       .  S
N536        H539   1.045       .  S
N536        H540   1.046       .  S
C541        C542   1.400       .  A
C541        C546   1.412       .  A
C541        H548   1.084       .  S
C542        C543   1.406       .  A
C543        C544   1.404       .  A
C543        N550   1.438       .  S
C544        C545   1.408       .  A
C544        H549   1.083       .  S
C545        C546   1.422       .  A
C546        N547   1.438       .  S
N547        H551   1.045       .  S
N547        H552   1.046       .  S
N550        H553   1.046       .  S
N550        H554   1.046       .  S
C555        C556   1.405       .  A
C555        C560   1.404       .  A
C555        H562   1.084       .  S
C556        C557   1.414       .  A
C557        C558   1.407       .  A
C557        N564   1.438       .  S
C558        C559   1.405       .  A
C558        H563   1.084       .  S
C559        C560   1.418       .  A
C560        N561   1.433   1_554  S
N561        H565   1.044   1_556  S
N561        H566   1.045       .  S
N564        H567   1.045       .  S
N564        H568   1.046       .  S
C569        C570   1.403       .  A
C569        C574   1.397       .  A
C569        H576   1.084       .  S
C570        C571   1.414   1_655  A
C571        C572   1.413       .  A
C571        N578   1.436       .  S
C572        C573   1.406   1_455  A
C572        H577   1.084       .  S
C573        C574   1.417       .  A
C574        N575   1.433       .  S
N575        H579   1.044       .  S
N575        H580   1.045       .  S
N578        H581   1.044       .  S
N578        H582   1.046       .  S
C583        C584   1.408       .  A
C583        C588   1.418       .  A
C583        H590   1.084       .  S
C584        C585   1.410       .  A
C585        C586   1.399       .  A
C585        N592   1.439       .  S
C586        C587   1.406       .  A
C586        H591   1.083       .  S
C587        C588   1.416       .  A
C588        N589   1.437       .  S
N589        H593   1.046       .  S
N589        H594   1.046       .  S
N592        H595   1.046       .  S
N592        H596   1.046       .  S
C597        C598   1.406       .  A
C597        C602   1.406       .  A
C597        H604   1.084       .  S
C598        C599   1.419   1_655  A
C599        C600   1.404       .  A
C599        N606   1.438       .  S
C600        C601   1.398   1_455  A
C600        H605   1.084       .  S
C601        C602   1.409       .  A
C602        N603   1.438       .  S
N603        H607   1.046       .  S
N603        H608   1.045       .  S
N606        H609   1.045       .  S
N606        H610   1.046       .  S
C611        C612   1.401       .  A
C611        C616   1.400       .  A
C611        H618   1.084       .  S
C612        C613   1.414       .  A
C613        C614   1.406       .  A
C613        N620   1.438       .  S
C614        C615   1.404       .  A
C614        H619   1.084   1_554  S
C615        C616   1.419       .  A
C616        N617   1.432       .  S
N617        H621   1.045       .  S
N617        H622   1.045       .  S
N620        H623   1.045   1_554  S
N620        H624   1.046   1_554  S
C625        C626   1.408       .  A
C625        C630   1.410       .  A
C625        H632   1.084       .  S
C626        C627   1.414   1_455  A
C627        C628   1.403       .  A
C627        N634   1.439       .  S
C628        C629   1.403       .  A
C628        H633   1.084       .  S
C629        C630   1.418   1_655  A
C630        N631   1.432       .  S
N631        H635   1.045       .  S
N631        H636   1.045       .  S
N634        H637   1.046       .  S
N634        H638   1.046       .  S
C639        C640   1.402       .  A
C639        C644   1.405       .  A
C639        H646   1.084   1_554  S
C640        C641   1.408       .  A
C641        C642   1.405       .  A
C641        N648   1.438       .  S
C642        C643   1.407       .  A
C642        H647   1.083       .  S
C643        C644   1.422       .  A
C644        N645   1.432   1_554  S
N645        H649   1.045       .  S
N645        H650   1.045   1_556  S
N648        H651   1.046       .  S
N648        H652   1.045       .  S
C653        C654   1.404       .  A
C653        C658   1.405       .  A
C653        H660   1.084       .  S
C654        C655   1.408       .  A
C655        C656   1.402       .  A
C655        N662   1.433       .  S
C656        C657   1.404       .  A
C656        H661   1.084       .  S
C657        C658   1.411       .  A
C658        N659   1.438       .  S
N659        H663   1.045       .  S
N659        H664   1.044       .  S
N662        H665   1.045       .  S
N662        H666   1.045   1_565  S
C667        C668   1.408   1_455  A
C667        C672   1.402       .  A
C667        H674   1.084       .  S
C668        C669   1.419       .  A
C669        C670   1.406       .  A
C669        N676   1.433       .  S
C670        C671   1.399       .  A
C670        H675   1.084       .  S
C671        C672   1.410   1_655  A
C672        N673   1.430       .  S
N673        H677   1.045       .  S
N673        H678   1.046       .  S
N676        H679   1.044       .  S
N676        H680   1.045       .  S
C681        C682   1.405       .  A
C681        C686   1.405       .  A
C681        H688   1.084       .  S
C682        C683   1.413       .  A
C683        C684   1.406       .  A
C683        N690   1.438   1_565  S
C684        C685   1.402       .  A
C684        H689   1.084       .  S
C685        C686   1.408       .  A
C686        N687   1.433       .  S
N687        H691   1.045       .  S
N687        H692   1.045       .  S
N690        H693   1.045       .  S
N690        H694   1.046       .  S
C695        C696   1.405       .  A
C695        C700   1.409       .  A
C695        H702   1.084       .  S
C696        C697   1.412       .  A
C697        C698   1.406       .  A
C697        N704   1.438       .  S
C698        C699   1.405       .  A
C698        H703   1.084       .  S
C699        C700   1.411       .  A
C700        N701   1.438       .  S
N701        H705   1.046   1_554  S
N701        H706   1.045   1_554  S
N704        H707   1.044       .  S
N704        H708   1.046       .  S
C709        C710   1.412       .  A
C709        C714   1.413       .  A
C709        H716   1.083       .  S
C710        C711   1.424       .  A
C711        C712   1.399       .  A
C711        N718   1.432       .  S
C712        C713   1.398       .  A
C712        H717   1.084       .  S
C713        C714   1.408       .  A
C714        N715   1.437       .  S
N715        H719   1.045       .  S
N715        H720   1.045   1_565  S
N718        H721   1.045       .  S
N718        H722   1.045       .  S
C723        C724   1.408       .  A
C723        C728   1.395       .  A
C723        H730   1.083       .  S
C724        C725   1.422       .  A
C725        C726   1.411       .  A
C725        N732   1.438       .  S
C726        C727   1.401       .  A
C726        H731   1.083       .  S
C727        C728   1.408       .  A
C728        N729   1.432       .  S
N729        H733   1.045       .  S
N729        H734   1.043       .  S
N732        H735   1.046       .  S
N732        H736   1.046   1_554  S
C737        C738   1.405       .  A
C737        C742   1.407       .  A
C737        H744   1.084       .  S
C738        C739   1.413       .  A
C739        C740   1.402       .  A
C739        N746   1.432   1_565  S
C740        C741   1.400       .  A
C740        H745   1.083   1_565  S
C741        C742   1.412       .  A
C742        N743   1.438       .  S
N743        H747   1.046       .  S
N743        H748   1.045       .  S
N746        H749   1.046       .  S
N746        H750   1.045       .  S
C751        C752   1.402       .  A
C751        C756   1.405       .  A
C751        H758   1.084       .  S
C752        C753   1.410       .  A
C753        C754   1.405       .  A
C753        N760   1.438       .  S
C754        C755   1.406       .  A
C754        H759   1.083       .  S
C755        C756   1.414       .  A
C756        N757   1.432       .  S
N757        H761   1.044       .  S
N757        H762   1.046       .  S
N760        H763   1.045       .  S
N760        H764   1.046       .  S
C765        C766   1.407       .  A
C765        C770   1.414       .  A
C765        H772   1.084       .  S
C766        C767   1.410       .  A
C767        C768   1.397       .  A
C767        N774   1.432       .  S
C768        C769   1.402       .  A
C768        H773   1.084       .  S
C769        C770   1.413       .  A
C770        N771   1.437       .  S
N771        H775   1.046   1_554  S
N771        H776   1.044       .  S
N774        H777   1.046       .  S
N774        H778   1.046       .  S
C779        C780   1.403       .  A
C779        C784   1.401       .  A
C779        H786   1.084       .  S
C780        C781   1.412       .  A
C781        C782   1.406       .  A
C781        N788   1.438       .  S
C782        C783   1.403       .  A
C782        H787   1.084       .  S
C783        C784   1.415       .  A
C784        N785   1.433       .  S
N785        H789   1.044       .  S
N785        H790   1.045       .  S
N788        H791   1.045       .  S
N788        H792   1.046       .  S
C793        C794   1.406       .  A
C793        C798   1.414       .  A
C793        H800   1.084       .  S
C794        C795   1.410       .  A
C795        C796   1.398       .  A
C795        N802   1.439       .  S
C796        C797   1.403       .  A
C796        H801   1.084       .  S
C797        C798   1.414       .  A
C798        N799   1.438       .  S
N799        H803   1.046       .  S
N799        H804   1.043       .  S
N802        H805   1.046       .  S
N802        H806   1.046       .  S
C807        C808   1.402       .  A
C807        C812   1.400       .  A
C807        H814   1.083       .  S
C808        C809   1.413   1_655  A
C809        C810   1.417       .  A
C809        N816   1.437       .  S
C810        C811   1.408       .  A
C810        H815   1.082       .  S
C811        C812   1.413   1_455  A
C812        N813   1.439       .  S
N813        H817   1.046       .  S
N813        H818   1.046       .  S
N816        H819   1.045       .  S
N816        H820   1.046       .  S
C821        C822   1.402       .  A
C821        C826   1.409       .  A
C821        H828   1.084       .  S
C822        C823   1.412       .  A
C823        C824   1.396       .  A
C823        N830   1.433       .  S
C824        C825   1.403       .  A
C824        H829   1.084       .  S
C825        C826   1.417       .  A
C826        N827   1.438       .  S
N827        H831   1.046       .  S
N827        H832   1.045       .  S
N830        H833   1.046       .  S
N830        H834   1.045       .  S
C835        C836   1.407       .  A
C835        C840   1.416       .  A
C835        H842   1.084       .  S
C836        C837   1.407       .  A
C837        C838   1.397       .  A
C837        N844   1.433       .  S
C838        C839   1.403       .  A
C838        H843   1.084       .  S
C839        C840   1.415       .  A
C840        N841   1.437       .  S
N841        H845   1.046       .  S
N841        H846   1.045       .  S
N844        H847   1.046       .  S
N844        H848   1.045       .  S
C849        C850   1.403       .  A
C849        C854   1.406       .  A
C849        H856   1.081       .  S
C850        C851   1.414   1_655  A
C851        C852   1.407       .  A
C851        N858   1.438       .  S
C852        C853   1.402       .  A
C852        H857   1.084       .  S
C853        C854   1.412   1_455  A
C854        N855   1.438       .  S
N855        H859   1.045       .  S
N855        H860   1.045       .  S
N858        H861   1.045       .  S
N858        H862   1.046       .  S
C863        C864   1.406       .  A
C863        C868   1.414       .  A
C863        H870   1.084       .  S
C864        C865   1.409       .  A
C865        C866   1.401       .  A
C865        N872   1.433       .  S
C866        C867   1.404       .  A
C866        H871   1.084       .  S
C867        C868   1.415       .  A
C868        N869   1.437       .  S
N869        H873   1.046       .  S
N869        H874   1.045   1_565  S
N872        H875   1.046       .  S
N872        H876   1.046       .  S
C877        C878   1.402       .  A
C877        C882   1.409       .  A
C877        H884   1.084       .  S
C878        C879   1.412       .  A
C879        C880   1.394       .  A
C879        N886   1.433       .  S
C880        C881   1.404       .  A
C880        H885   1.082       .  S
C881        C882   1.417       .  A
C882        N883   1.438       .  S
N883        H887   1.046       .  S
N883        H888   1.044       .  S
N886        H889   1.045       .  S
N886        H890   1.046       .  S
C891        C892   1.407       .  A
C891        C896   1.408       .  A
C891        H898   1.084       .  S
C892        C893   1.414       .  A
C893        C894   1.401       .  A
C893        N900   1.439       .  S
C894        C895   1.402       .  A
C894        H899   1.083       .  S
C895        C896   1.417       .  A
C896        N897   1.431       .  S
N897        H901   1.044       .  S
N897        H902   1.045       .  S
N900        H903   1.046       .  S
N900        H904   1.046       .  S
C905        C906   1.403       .  A
C905        C910   1.409       .  A
C905        H912   1.084       .  S
C906        C907   1.414       .  A
C907        C908   1.399       .  A
C907        N914   1.440       .  S
C908        C909   1.407       .  A
C908        H913   1.083       .  S
C909        C910   1.414       .  A
C910        N911   1.432       .  S
N911        H915   1.045   1_565  S
N911        H916   1.044       .  S
N914        H917   1.043       .  S
N914        H918   1.046       .  S
C919        C920   1.402       .  A
C919        C924   1.413       .  A
C919        H926   1.084       .  S
C920        C921   1.409       .  A
C921        C922   1.396       .  A
C921        N928   1.433       .  S
C922        C923   1.408       .  A
C922        H927   1.083       .  S
C923        C924   1.420       .  A
C924        N925   1.437       .  S
N925        H929   1.046       .  S
N925        H930   1.046       .  S
N928        H931   1.046       .  S
N928        H932   1.044       .  S
C933        C934   1.405       .  A
C933        C938   1.408       .  A
C933        H940   1.084       .  S
C934        C935   1.414       .  A
C935        C936   1.397       .  A
C935        N942   1.433       .  S
C936        C937   1.403       .  A
C936        H941   1.084       .  S
C937        C938   1.411       .  A
C938        N939   1.438       .  S
N939        H943   1.045       .  S
N939        H944   1.045       .  S
N942        H945   1.044       .  S
N942        H946   1.044       .  S
C947        C948   1.403       .  A
C947        C952   1.400       .  A
C947        H954   1.084       .  S
C948        C949   1.421       .  A
C949        C950   1.410       .  A
C949        N956   1.439   1_565  S
C950        C951   1.406       .  A
C950        H955   1.084       .  S
C951        C952   1.410       .  A
C952        N953   1.439       .  S
N953        H957   1.046       .  S
N953        H958   1.046       .  S
N956        H959   1.042       .  S
N956        H960   1.046       .  S
C961        C962   1.402       .  A
C961        C966   1.395       .  A
C961        H968   1.084       .  S
C962        C963   1.414       .  A
C963        C964   1.410       .  A
C963        N970   1.437       .  S
C964        C965   1.403       .  A
C964        H969   1.084       .  S
C965        C966   1.415       .  A
C966        N967   1.433       .  S
N967        H971   1.045       .  S
N967        H972   1.046       .  S
N970        H973   1.045       .  S
N970        H974   1.046       .  S
C975        C976   1.405       .  A
C975        C980   1.408       .  A
C975        H982   1.084       .  S
C976        C977   1.408       .  A
C977        C978   1.403       .  A
C977        N984   1.432       .  S
C978        C979   1.405       .  A
C978        H983   1.084       .  S
C979        C980   1.413       .  A
C980        N981   1.438       .  S
N981        H985   1.046       .  S
N981        H986   1.045       .  S
N984        H987   1.046       .  S
N984        H988   1.045       .  S
C989        C990   1.402       .  A
C989        C994   1.406       .  A
C989        H996   1.084       .  S
C990        C991   1.417       .  A
C991        C992   1.403       .  A
C991        N998   1.433       .  S
C992        C993   1.403       .  A
C992        H997   1.084       .  S
C993        C994   1.414       .  A
C994        N995   1.437       .  S
N995        H999   1.045       .  S
N995       H1000   1.044       .  S
N998       H1001   1.045       .  S
N998       H1002   1.044       .  S
C1003      C1004   1.404       .  A
C1003      C1008   1.393       .  A
C1003      H1010   1.084       .  S
C1004      C1005   1.417       .  A
C1005      C1006   1.410       .  A
C1005      N1012   1.438       .  S
C1006      C1007   1.403       .  A
C1006      H1011   1.084       .  S
C1007      C1008   1.412       .  A
C1008      N1009   1.433       .  S
N1009      H1013   1.045       .  S
N1009      H1014   1.046       .  S
N1012      H1015   1.046       .  S
N1012      H1016   1.046       .  S
C1017      C1018   1.404       .  A
C1017      C1022   1.408       .  A
C1017      H1024   1.084       .  S
C1018      C1019   1.411       .  A
C1019      C1020   1.403       .  A
C1019      N1026   1.432       .  S
C1020      C1021   1.401       .  A
C1020      H1025   1.084       .  S
C1021      C1022   1.412       .  A
C1022      N1023   1.437       .  S
N1023      H1027   1.046       .  S
N1023      H1028   1.045       .  S
N1026      H1029   1.045       .  S
N1026      H1030   1.044       .  S
C1031      C1032   1.401       .  A
C1031      C1036   1.400       .  A
C1031      H1038   1.084       .  S
C1032      C1033   1.410       .  A
C1033      C1034   1.404       .  A
C1033      N1040   1.438       .  S
C1034      C1035   1.405       .  A
C1034      H1039   1.084       .  S
C1035      C1036   1.419       .  A
C1036      N1037   1.433       .  S
N1037      H1041   1.044       .  S
N1037      H1042   1.045       .  S
N1040      H1043   1.046       .  S
N1040      H1044   1.045       .  S
C1045      C1046   1.402       .  A
C1045      C1050   1.407       .  A
C1045      H1052   1.084       .  S
C1046      C1047   1.409   1_655  A
C1047      C1048   1.403       .  A
C1047      N1054   1.437       .  S
C1048      C1049   1.403       .  A
C1048      H1053   1.084       .  S
C1049      C1050   1.414   1_455  A
C1050      N1051   1.438       .  S
N1051      H1055   1.046       .  S
N1051      H1056   1.046       .  S
N1054      H1057   1.045       .  S
N1054      H1058   1.045       .  S
C1059      C1060   1.402       .  A
C1059      C1064   1.407       .  A
C1059      H1066   1.084       .  S
C1060      C1061   1.416       .  A
C1061      C1062   1.397       .  A
C1061      N1068   1.440       .  S
C1062      C1063   1.405       .  A
C1062      H1067   1.084       .  S
C1063      C1064   1.418       .  A
C1064      N1065   1.438       .  S
N1065      H1069   1.046       .  S
N1065      H1070   1.044       .  S
N1068      H1071   1.041       .  S
N1068      H1072   1.046       .  S
C1073      C1074   1.405       .  A
C1073      C1078   1.403       .  A
C1073      H1080   1.084       .  S
C1074      C1075   1.420   1_655  A
C1075      C1076   1.405       .  A
C1075      N1082   1.432       .  S
C1076      C1077   1.402   1_455  A
C1076      H1081   1.084       .  S
C1077      C1078   1.410       .  A
C1078      N1079   1.438       .  S
N1079      H1083   1.046       .  S
N1079      H1084   1.046       .  S
N1082      H1085   1.045       .  S
N1082      H1086   1.045       .  S
C1087      C1088   1.403       .  A
C1087      C1092   1.405       .  A
C1087      H1094   1.084       .  S
C1088      C1089   1.414       .  A
C1089      C1090   1.405       .  A
C1089      N1096   1.438       .  S
C1090      C1091   1.402       .  A
C1090      H1095   1.084       .  S
C1091      C1092   1.412       .  A
C1092      N1093   1.438       .  S
N1093      H1097   1.046       .  S
N1093      H1098   1.045       .  S
N1096      H1099   1.045       .  S
N1096      H1100   1.046       .  S
C1101      C1102   1.402       .  A
C1101      C1106   1.396       .  A
C1101      H1108   1.084       .  S
C1102      C1103   1.413       .  A
C1103      C1104   1.410       .  A
C1103      N1110   1.432       .  S
C1104      C1105   1.404       .  A
C1104      H1109   1.084       .  S
C1105      C1106   1.407       .  A
C1106      N1107   1.433       .  S
N1107      H1111   1.046       .  S
N1107      H1112   1.046       .  S
N1110      H1113   1.046       .  S
N1110      H1114   1.045       .  S
C1115      C1116   1.403       .  A
C1115      C1120   1.414       .  A
C1115      H1122   1.084       .  S
C1116      C1117   1.408       .  A
C1117      C1118   1.392       .  A
C1117      N1124   1.434       .  S
C1118      C1119   1.408       .  A
C1118      H1123   1.083       .  S
C1119      C1120   1.419       .  A
C1120      N1121   1.437       .  S
N1121      H1125   1.046       .  S
N1121      H1126   1.046       .  S
N1124      H1127   1.046       .  S
N1124      H1128   1.045       .  S
