geometry optimzed in LAMMPS
_audit_creation_date              2020-11-30 
_audit_creation_method            'lammps2cif' 
_symmetry_space_group_name_H-M    'P1' 
_symmetry_Int_Tables_number       1 
_symmetry_cell_setting            triclinic 
loop_ 
_symmetry_equiv_pos_as_xyz 
  x,y,z 
_cell_length_a                    81.63374496 
_cell_length_b                    82.20114411221387 
_cell_length_c                    33.92124650307235 
_cell_angle_alpha                 90.44014201606096 
_cell_angle_beta                  89.41889882968165 
_cell_angle_gamma                 122.78547451575317 
loop_ 
_atom_site_label 
_atom_site_type_symbol 
_atom_site_fract_x 
_atom_site_fract_y 
_atom_site_fract_z 
_atom_site_charge 
C1          C  0.18606620  0.52321951  0.73201714    -0.01600
C2          C  0.30755958  0.51629391  0.73655534    -0.01600
C3          C  0.18304654  0.64614657  0.76101526    -0.01600
C4          C  0.31524479  0.77424217  0.73179605    -0.01600
C5          C  0.44293150  0.64324452  0.74929458    -0.01600
C6          C  0.43687872  0.76538435  0.74096209    -0.01600
C7          C  0.50921452  0.18113679  0.23168195    -0.01600
C8          C  0.63346038  0.17871721  0.25604174    -0.01600
C9          C  0.76728525  0.31225313  0.25289562    -0.01600
C10         C  0.76343876  0.43683495  0.25877962    -0.01600
C11         C  0.63874001  0.43998745  0.23662804    -0.01600
C12         C  0.50956159  0.30789381  0.22093772    -0.01600
O13         O  0.39534165  0.10634692  0.90744658    -0.56900
C14         C  0.40562892  0.11108744  0.02371706     0.75700
O15         O  0.35132277  0.10317146  0.99033019    -0.58100
C16         C  0.38145788  0.09641025  0.88374382     0.75700
C17         C  0.35610548  0.05344271  0.97722468     0.78100
Cd18       Cd  0.37492228  0.09441483  0.96701918     1.37500
O19         O  0.40885436  0.10920152  0.98791838    -0.56900
O20         O  0.37421389  0.06488068  0.97195456    -0.55700
C21         C  0.36063574  0.11950157  0.97326629     0.78000
O22         O  0.34626476  0.06119827  0.98003474    -0.58100
O23         O  0.38812139  0.10474647  0.03308844    -0.56600
O24         O  0.36471663  0.08554299  0.89896057    -0.56600
O25         O  0.37567525  0.12333046  0.95416166    -0.55700
O26         O  0.30219592  0.86581467  0.04874556    -0.56900
C27         C  0.30331067  0.86004800  0.92910715     0.75700
O28         O  0.25056674  0.85597824  0.99097172    -0.58100
C29         C  0.29178660  0.86745799  0.07442771     0.75700
C30         C  0.29940964  0.90984146  0.98090345     0.78100
Cd31       Cd  0.28597363  0.86990180  0.99152175     1.37500
O32         O  0.30750909  0.86004099  0.96497655    -0.56900
O33         O  0.30939925  0.90448137  0.99806805    -0.55700
C34         C  0.24592067  0.83859809  0.98885039     0.78000
O35         O  0.28329990  0.89657963  0.96668369    -0.58100
O36         O  0.29202797  0.86577901  0.92219797    -0.56600
O37         O  0.27918524  0.87046352  0.06149793    -0.56600
O38         O  0.25982853  0.83604038  0.98625226    -0.55700
O39         O  0.84649539  0.29045443  0.90297038    -0.56900
C40         C  0.83347377  0.28772818  0.02299138     0.75700
O41         O  0.83970289  0.24394923  0.98799968    -0.58100
C42         C  0.84996888  0.28046032  0.87979177     0.75700
C43         C  0.89349808  0.29660852  0.97498002     0.78100
Cd44       Cd  0.85175962  0.27698111  0.96360756     1.37500
O45         O  0.83709703  0.29513288  0.98883173    -0.56900
O46         O  0.88490337  0.30554191  0.97239883    -0.55700
C47         C  0.82399553  0.23609675  0.96855118     0.78000
O48         O  0.88256087  0.27832220  0.97449746    -0.58100
O49         O  0.83938605  0.27662460  0.02951177    -0.56600
O50         O  0.85451693  0.26961432  0.89580204    -0.56600
O51         O  0.82178978  0.24717918  0.94676303    -0.55700
O52         O  0.09077582  0.41105281  0.05519662    -0.56900
C53         C  0.09913485  0.42337304  0.93811105     0.75700
O54         O  0.09290614  0.36960591  0.97150880    -0.58100
C55         C  0.08436104  0.39663713  0.07799399     0.75700
C56         C  0.04063828  0.36871420  0.98390827     0.78100
Cd57       Cd  0.08243930  0.39177789  0.99393736     1.37500
O58         O  0.09826780  0.42619439  0.97459038    -0.56900
O59         O  0.04952364  0.38514039  0.00043227    -0.55700
C60         C  0.10888389  0.37875404  0.99003429     0.78000
O61         O  0.05118398  0.36296889  0.97029609    -0.58100
O62         O  0.09161697  0.40596068  0.92757098    -0.56600
O63         O  0.07661976  0.38021410  0.06161082    -0.56600
O64         O  0.11233666  0.39359076  0.00881891    -0.55700
O65         O  0.63897385  0.10185185  0.99896564    -0.56900
C66         C  0.65281498  0.09044746  0.89559581     0.75700
O67         O  0.68326907  0.11612131  0.99707570    -0.58100
C68         C  0.63743457  0.09769813  0.03524326     0.75700
C69         C  0.63835381  0.04364269  0.98767368     0.78100
Cd70       Cd  0.65487167  0.08466735  0.97892624     1.37500
O71         O  0.63896532  0.08697766  0.91861821    -0.56900
O72         O  0.63086609  0.05031864  0.96590565    -0.55700
C73         C  0.69598639  0.11213343  0.99054656     0.78000
O74         O  0.65320875  0.05596207  0.00703664    -0.58100
O75         O  0.66710210  0.09109622  0.91144553    -0.56600
O76         O  0.64268091  0.08633560  0.04484203    -0.56600
O77         O  0.68961325  0.09480472  0.98080845    -0.55700
O78         O  0.52499497  0.83997773  0.00496617    -0.56900
C79         C  0.55388329  0.85665090  0.11197743     0.75700
O80         O  0.58486357  0.85248832  0.00618504    -0.58100
C81         C  0.52913287  0.83698685  0.97065513     0.75700
C82         C  0.57758831  0.89944013  0.01209015     0.78100
Cd83       Cd  0.55933015  0.85853613  0.02788892     1.37500
O84         O  0.53951987  0.85124135  0.08939229    -0.56900
O85         O  0.55940249  0.88786736  0.01606803    -0.55700
C86         C  0.57650716  0.83598873  0.02250425     0.78000
O87         O  0.58760842  0.89190074  0.01351502    -0.58100
O88         O  0.57024407  0.86335613  0.09541210    -0.56600
O89         O  0.54702833  0.84443996  0.96309553    -0.56600
O90         O  0.56071574  0.83049323  0.04055103    -0.55700
O91         O  0.09780513  0.66804187  0.97371546    -0.56900
C92         C  0.09081510  0.66517152  0.12287950     0.75700
O93         O  0.10375026  0.70559614  0.00988428    -0.58100
C94         C  0.10795220  0.66128292  0.98276960     0.75700
C95         C  0.04989809  0.65790010  0.03139459     0.78100
Cd96       Cd  0.09093798  0.67375293  0.04087639     1.37500
O97         O  0.09519498  0.68160575  0.11092824    -0.56900
O98         O  0.05739395  0.64812228  0.02468014    -0.55700
C99         C  0.11904531  0.71416730  0.03060414     0.78000
O100        O  0.06162791  0.67541573  0.04097373    -0.58100
O101        O  0.08688108  0.65258792  0.09648387    -0.56600
O102        O  0.10946575  0.65932644  0.01931529    -0.56600
O103        O  0.12063604  0.70416697  0.05655278    -0.55700
O104        O  0.85061777  0.53416196  0.01329725    -0.56900
C105        C  0.86226773  0.55758886  0.90523747     0.75700
O106        O  0.84892723  0.58439479  0.01903947    -0.58100
C107        C  0.84123431  0.53561319  0.04164482     0.75700
C108        C  0.90378070  0.58953693  0.00881541     0.78100
Cd109      Cd  0.86303887  0.56724470  0.98729108     1.37500
O110        O  0.87436228  0.57415944  0.91924006    -0.56900
O111        O  0.89324311  0.57135508  0.01214296    -0.55700
C112        C  0.83952934  0.58373301  0.98893495     0.78000
O113        O  0.89523886  0.59769198  0.99736932    -0.58100
O114        O  0.85071412  0.54488390  0.92983006    -0.56600
O115        O  0.84218161  0.55144255  0.04430570    -0.56600
O116        O  0.84226347  0.57692109  0.95783797    -0.55700
O117        O  0.65801537  0.53421458  0.99126046    -0.56900
C118        C  0.66761941  0.56232293  0.88521535     0.75700
O119        O  0.67748578  0.59824051  0.98546820    -0.58100
C120        C  0.66099680  0.53827785  0.02762625     0.75700
C121        C  0.71605681  0.57992964  0.96873887     0.78100
Cd122      Cd  0.67558276  0.56796138  0.96835497     1.37500
O123        O  0.65956502  0.54802448  0.90862133    -0.56900
O124        O  0.70311425  0.56590488  0.94868092    -0.55700
C125        C  0.65926860  0.59095484  0.98424615     0.78000
O126        O  0.71039469  0.58911346  0.98878378    -0.58100
O127        O  0.67888229  0.57878075  0.90061912    -0.56600
O128        O  0.66955496  0.55599315  0.03670193    -0.56600
O129        O  0.64878607  0.57298402  0.97699608    -0.55700
O130        O  0.55084685  0.66957648  0.08136623    -0.56900
C131        C  0.53770583  0.66306442  0.96436664     0.75700
O132        O  0.56711045  0.70821461  0.99618085    -0.58100
C133        C  0.56437686  0.68273657  0.10237576     0.75700
C134        C  0.59155963  0.66335998  0.00964833     0.78100
Cd135      Cd  0.56975284  0.68160805  0.01849228     1.37500
O136        O  0.53486232  0.66342021  0.00108586    -0.56900
O137        O  0.57649755  0.65646632  0.03114667    -0.55700
C138        C  0.58464246  0.72159236  0.00202635     0.78000
O139        O  0.59632257  0.67854057  0.99065195    -0.58100
O140        O  0.55519112  0.67008833  0.95358575    -0.56600
O141        O  0.57980405  0.69496669  0.08426969    -0.56600
O142        O  0.59593769  0.71644309  0.01317945    -0.55700
O143        O  0.41004397  0.29636133  0.98903917    -0.56900
C144        C  0.39286699  0.28837098  0.88759101     0.75700
O145        O  0.35650337  0.24664606  0.00007647    -0.58100
C146        C  0.40615131  0.28816671  0.02231432     0.75700
C147        C  0.35165957  0.29364132  0.97345352     0.78100
Cd148      Cd  0.37574415  0.27775792  0.96534377     1.37500
O149        O  0.39133667  0.27435093  0.90632902    -0.56900
O150        O  0.36853791  0.30178751  0.98810053    -0.55700
C151        C  0.35400924  0.23625249  0.97019960     0.78000
O152        O  0.34552409  0.27757159  0.95663940    -0.58100
O153        O  0.38738083  0.29809708  0.90587991    -0.56600
O154        O  0.38828979  0.27648212  0.02995456    -0.56600
O155        O  0.35975236  0.24497052  0.93750199    -0.55700
O156        O  0.29192259  0.41178840  0.05963535    -0.56900
C157        C  0.28528307  0.42595761  0.95905443     0.75700
O158        O  0.26722952  0.36003988  0.99856001    -0.58100
C159        C  0.28069354  0.40144472  0.08739341     0.75700
C160        C  0.22896469  0.37615614  0.99019333     0.78100
Cd161      Cd  0.26966140  0.39154404  0.00595245     1.37500
O162        O  0.28041478  0.42564793  0.99475311    -0.56900
O163        O  0.23515455  0.37713467  0.02470706    -0.55700
C164        C  0.28489944  0.36750534  0.98877799     0.78000
O165        O  0.24126257  0.38088931  0.96261246    -0.58100
O166        O  0.28349808  0.41058444  0.94612593    -0.56600
O167        O  0.26432046  0.38700525  0.07716741    -0.56600
O168        O  0.29486433  0.38568231  0.98559067    -0.55700
O169        O  0.41729951  0.10809263  0.48612058    -0.56900
C170        C  0.38786368  0.09595838  0.58848306     0.75700
O171        O  0.38849575  0.12207445  0.49259939    -0.58100
C172        C  0.41410490  0.10652275  0.44936496     0.75700
C173        C  0.36183553  0.04869775  0.49888486     0.78100
Cd174      Cd  0.38270345  0.09043633  0.50527026     1.37500
O175        O  0.40006490  0.09481651  0.56725320    -0.56900
O176        O  0.37758835  0.05890746  0.51742334    -0.55700
C177        C  0.37091633  0.11709238  0.49072224     0.78000
O178        O  0.35541362  0.05780429  0.48168281    -0.58100
O179        O  0.37365803  0.09479676  0.57102574    -0.56600
O180        O  0.39645049  0.09613553  0.43898515    -0.56600
O181        O  0.35808309  0.09916372  0.49480060    -0.55700
O182        O  0.30479687  0.84629648  0.47218169    -0.56900
C183        C  0.29217048  0.86120473  0.37022033     0.75700
O184        O  0.26122097  0.83117037  0.46175983    -0.58100
C185        C  0.30480574  0.84861463  0.50910160     0.75700
C186        C  0.30558076  0.90498634  0.47098541     0.78100
Cd187      Cd  0.28919729  0.86403589  0.45514107     1.37500
O188        O  0.30658618  0.86616198  0.39226021    -0.56900
O189        O  0.31597072  0.89870528  0.45951666    -0.55700
C190        C  0.24877563  0.83503516  0.47202047     0.78000
O191        O  0.28761775  0.89228086  0.47555478    -0.58100
O192        O  0.27695195  0.85814152  0.38741888    -0.56600
O193        O  0.29897477  0.85929802  0.52091321    -0.56600
O194        O  0.25481817  0.85285511  0.47374403    -0.55700
O195        O  0.85581740  0.29161499  0.55892655    -0.56900
C196        C  0.85325775  0.29868601  0.44590440     0.75700
O197        O  0.89894826  0.28346947  0.48571070    -0.58100
C198        C  0.86381057  0.28688360  0.58424605     0.75700
C199        C  0.84238524  0.24261529  0.49335129     0.78100
Cd200      Cd  0.86935944  0.28394229  0.50101550     1.37500
O201        O  0.85743225  0.30497339  0.48093889    -0.56900
O202        O  0.85562634  0.25190831  0.46776545    -0.55700
C203        C  0.91121542  0.30119534  0.49253590     0.78000
O204        O  0.84243896  0.25240261  0.52226450    -0.58100
O205        O  0.85785926  0.28681002  0.43601493    -0.56600
O206        O  0.87488494  0.28175629  0.57085179    -0.56600
O207        O  0.90408505  0.31112199  0.50152324    -0.55700
O208        O  0.10330089  0.41356862  0.39661371    -0.56900
C209        C  0.11398076  0.42549447  0.51320732     0.75700
O210        O  0.06936369  0.36615291  0.48448451    -0.58100
C211        C  0.10271440  0.40156759  0.37210668     0.75700
C212        C  0.12741808  0.38299579  0.46424759     0.78100
Cd213      Cd  0.09992811  0.39461799  0.45595732     1.37500
O214        O  0.11649788  0.42888335  0.47654300    -0.56900
O215        O  0.13250030  0.40051267  0.46423827    -0.55700
C216        C  0.05802383  0.37038321  0.46923594     0.78000
O217        O  0.10928401  0.37049417  0.46182417    -0.58100
O218        O  0.10436216  0.40783311  0.52293630    -0.56600
O219        O  0.10137058  0.38676851  0.38670882    -0.56600
O220        O  0.06617396  0.38550047  0.44834585    -0.55700
O221        O  0.65251658  0.08650257  0.57676194    -0.56900
C222        C  0.65939652  0.11878891  0.48187958     0.75700
O223        O  0.70150406  0.11437721  0.47035570    -0.58100
C224        C  0.66420422  0.09910547  0.60109242     0.75700
C225        C  0.66020875  0.05861922  0.50816903     0.78100
Cd226      Cd  0.67514533  0.09903861  0.52013714     1.37500
O227        O  0.65327773  0.10128047  0.47434680    -0.56900
O228        O  0.67270915  0.06865691  0.53424816    -0.55700
C229        C  0.71531346  0.12038240  0.49453912     0.78000
O230        O  0.65542119  0.06759733  0.48570909    -0.58100
O231        O  0.67241166  0.12699010  0.50791705    -0.56600
O232        O  0.68072369  0.11205715  0.58755264    -0.56600
O233        O  0.71052438  0.11512348  0.52998160    -0.55700
O234        O  0.54826391  0.85892781  0.43289053    -0.56900
C235        C  0.53675167  0.85053962  0.53769318     0.75700
O236        O  0.58667324  0.85506634  0.46561343    -0.58100
C237        C  0.56140242  0.86752019  0.40679783     0.75700
C238        C  0.59023969  0.91299458  0.50180942     0.78100
Cd239      Cd  0.57087666  0.87175285  0.48878831     1.37500
O240        O  0.53576130  0.84953654  0.50049501    -0.56900
O241        O  0.57222211  0.90226154  0.49506474    -0.55700
C242        C  0.58978568  0.85067781  0.49908112     0.78000
O243        O  0.59926413  0.90446839  0.50417039    -0.58100
O244        O  0.55357383  0.86164126  0.55200664    -0.56600
O245        O  0.57872741  0.87811069  0.41907913    -0.56600
O246        O  0.58522271  0.85710689  0.52829930    -0.55700
O247        O  0.07468868  0.66803264  0.42879979    -0.56900
C248        C  0.10292665  0.65855400  0.55016988     0.75700
O249        O  0.11320424  0.70293155  0.46370336    -0.58100
C250        C  0.08298112  0.65986556  0.41536257     0.75700
C251        C  0.04657488  0.65775155  0.51178512     0.78100
Cd252      Cd  0.08727515  0.67309280  0.49516962     1.37500
O253        O  0.09376934  0.66624026  0.56121691    -0.56900
O254        O  0.05366738  0.64735597  0.51261573    -0.55700
C255        C  0.11703930  0.71427138  0.49239600     0.78000
O256        O  0.05867102  0.67562794  0.50579326    -0.58100
O257        O  0.10432412  0.65696547  0.51334256    -0.56600
O258        O  0.09310463  0.65727432  0.43951927    -0.56600
O259        O  0.10645697  0.70675937  0.52276637    -0.55700
O260        O  0.85769061  0.54780107  0.58450118    -0.56900
C261        C  0.83687729  0.53343703  0.47530686     0.75700
O262        O  0.84910694  0.58961899  0.49847842    -0.58100
C263        C  0.85439272  0.55708471  0.60991192     0.75700
C264        C  0.89948402  0.59107149  0.51936072     0.78100
Cd265      Cd  0.85710163  0.56657135  0.52749747     1.37500
O266        O  0.83876823  0.53156918  0.51168286    -0.56900
O267        O  0.88934567  0.57519230  0.50109657    -0.55700
C268        C  0.83297120  0.58222720  0.51675413     0.78000
O269        O  0.88993695  0.59629414  0.53930047    -0.58100
O270        O  0.84506135  0.55063231  0.46283154    -0.56600
O271        O  0.85184066  0.56986481  0.59658236    -0.56600
O272        O  0.82857607  0.56818499  0.53909459    -0.55700
O273        O  0.66011883  0.53371196  0.48860006    -0.56900
C274        C  0.66843488  0.55992553  0.58882436     0.75700
O275        O  0.70090115  0.57009872  0.46996571    -0.58100
C276        C  0.65596216  0.53470453  0.45313871     0.75700
C277        C  0.65643136  0.59108829  0.49403380     0.78100
Cd278      Cd  0.67319484  0.56800103  0.50508736     1.37500
O279        O  0.68473564  0.57200958  0.57333984    -0.56900
O280        O  0.64687807  0.57406192  0.50731919    -0.55700
C281        C  0.71432443  0.58478864  0.48786751     0.78000
O282        O  0.67388944  0.59741682  0.48410467    -0.58100
O283        O  0.65436045  0.55064388  0.56528070    -0.56600
O284        O  0.65886953  0.55082573  0.44263068    -0.56600
O285        O  0.70874171  0.59267310  0.51206422    -0.55700
O286        O  0.54233791  0.67310647  0.50184402    -0.56900
C287        C  0.56835329  0.69177406  0.39889898     0.75700
O288        O  0.60270244  0.72659462  0.48935560    -0.58100
C289        C  0.54550253  0.67288461  0.53827364     0.75700
C290        C  0.59720719  0.67193490  0.48246526     0.78100
Cd291      Cd  0.57662991  0.69167486  0.48123515     1.37500
O292        O  0.55674960  0.67802113  0.42151886    -0.56900
O293        O  0.58136143  0.66565246  0.46468990    -0.55700
C294        C  0.59101350  0.73126357  0.50141796     0.78000
O295        O  0.60390247  0.68778295  0.50090102    -0.58100
O296        O  0.58351499  0.70573840  0.41462170    -0.56600
O297        O  0.56312649  0.68031222  0.54789002    -0.56600
O298        O  0.57342745  0.71757107  0.50557759    -0.55700
O299        O  0.42818898  0.29715461  0.49073565    -0.56900
C300        C  0.39760119  0.28563460  0.59375952     0.75700
O301        O  0.36557965  0.28291266  0.48630870    -0.60500
C302        C  0.42500072  0.29375508  0.45423996     0.75700
C303        C  0.37581054  0.23944897  0.50706428     0.78100
Cd304      Cd  0.39308825  0.28067140  0.51009158     1.37500
O305        O  0.41225637  0.29473648  0.57091457    -0.56900
O306        O  0.38994219  0.25070216  0.52904981    -0.55700
C307        C  0.37262677  0.30008195  0.49827498     0.78000
O308        O  0.36911817  0.24721094  0.48603012    -0.58100
O309        O  0.38133614  0.27448320  0.57738821    -0.56600
O310        O  0.40735828  0.28533784  0.44407763    -0.56600
O311        O  0.38929381  0.30835550  0.51383387    -0.55700
O312        O  0.30048405  0.41865356  0.40244316    -0.56900
C313        C  0.29904781  0.42615937  0.51824204     0.75700
O314        O  0.25504551  0.37551544  0.48470326    -0.58100
C315        C  0.29967298  0.40645061  0.37809035     0.75700
C316        C  0.30771512  0.37548441  0.47628931     0.78100
Cd317      Cd  0.28927995  0.39652123  0.45949122     1.37500
O318        O  0.30799937  0.43061862  0.48542699    -0.56900
O319        O  0.31730896  0.39375949  0.47432626    -0.55700
C320        C  0.24731941  0.37895331  0.45648507     0.78000
O321        O  0.28942830  0.36704504  0.47260850    -0.58100
O322        O  0.28702189  0.40831735  0.52405681    -0.56600
O323        O  0.29480229  0.39016209  0.39192476    -0.56600
O324        O  0.25876292  0.38899555  0.42877765    -0.55700
C325        C  0.31326855  0.33271154  0.48602173    -0.01100
C326        C  0.33360603  0.34166493  0.48937150     0.07500
C327        C  0.34556337  0.36193816  0.48820077    -0.07100
C328        C  0.33765736  0.37330759  0.48394614     0.04900
C329        C  0.31717102  0.36437489  0.48167485    -0.14300
C330        C  0.30527691  0.34403320  0.48275691    -0.07700
C331        C  0.34284379  0.33027305  0.49284871     0.05800
C332        C  0.34011065  0.31716119  0.46284020    -0.08800
C333        C  0.34921689  0.30678938  0.46430099     0.00800
C334        C  0.36193497  0.30998705  0.49560689     0.00700
C335        C  0.36452392  0.32299012  0.52574899    -0.12300
C336        C  0.35489970  0.33283702  0.52496247     0.01200
C337        C  0.34566580  0.29343374  0.43269107     0.40500
C338        C  0.35713028  0.34500320  0.55809755     0.37100
C339        C  0.30024024  0.31191881  0.48558743     0.36800
C340        C  0.35111112  0.39397706  0.48059468     0.37600
N341        N  0.34267455  0.28268186  0.40733778    -0.43200
N342        N  0.35883723  0.35463883  0.58480308    -0.43700
N343        N  0.36205468  0.41050080  0.47755073    -0.41000
N344        N  0.28977124  0.29525893  0.48469999    -0.42500
H345        H  0.28959858  0.33682560  0.48041606     0.13700
H346        H  0.36125069  0.36891480  0.48973682     0.10200
H347        H  0.33097401  0.31516935  0.43791988     0.11300
H348        H  0.37383988  0.32520499  0.55049791     0.17100
C349        C  0.65261144  0.63444313  0.47576058    -0.01100
C350        C  0.63325703  0.62745979  0.48716937     0.07500
C351        C  0.62126995  0.60829743  0.50002944    -0.07100
C352        C  0.62833244  0.59614305  0.50241097     0.04900
C353        C  0.64784415  0.60308675  0.49104168    -0.14300
C354        C  0.65970042  0.62228625  0.47763986    -0.07700
C355        C  0.62496422  0.63967209  0.48523416     0.05800
C356        C  0.61051409  0.63505049  0.45740994    -0.08800
C357        C  0.60168909  0.64562112  0.45523946     0.00800
C358        C  0.60706965  0.66107795  0.48198576     0.00700
C359        C  0.62183801  0.66585972  0.50945740    -0.12300
C360        C  0.63076040  0.65531699  0.51125363     0.01200
C361        C  0.58747344  0.64039447  0.42461937     0.40500
C362        C  0.64548348  0.66047084  0.54063716     0.37100
C363        C  0.66540909  0.65399315  0.46175681     0.36800
C364        C  0.61516240  0.57679780  0.51723621     0.37600
N365        N  0.57615099  0.63621788  0.39995352    -0.43200
N366        N  0.65736282  0.66458844  0.56400177    -0.43700
N367        N  0.60453324  0.56135703  0.52931924    -0.41000
N368        N  0.67567660  0.66970616  0.45074680    -0.42500
H369        H  0.67465587  0.62794210  0.46886128     0.13700
H370        H  0.60634522  0.60289067  0.50873583     0.10200
H371        H  0.60615958  0.62312035  0.43714983     0.11300
H372        H  0.62620238  0.67763357  0.53010890     0.17100
C373        C  0.80528874  0.60188438  0.46850212    -0.01100
C374        C  0.79042450  0.59704348  0.49653362     0.07500
C375        C  0.79084793  0.58910794  0.53265686    -0.07100
C376        C  0.80511476  0.58513035  0.54054870     0.04900
C377        C  0.81944561  0.58895774  0.51172260    -0.14300
C378        C  0.81971393  0.59795764  0.47636440    -0.07700
C379        C  0.77311513  0.59810188  0.48809052     0.05800
C380        C  0.76039605  0.58647292  0.45794818    -0.08800
C381        C  0.74171137  0.58322421  0.45500337     0.00800
C382        C  0.73526483  0.59142558  0.48322124     0.00700
C383        C  0.74875914  0.60456907  0.51093090    -0.12300
C384        C  0.76751706  0.60798161  0.51344604     0.01200
C385        C  0.72938299  0.57093603  0.42341097     0.40500
C386        C  0.78060483  0.62122985  0.54310517     0.37100
C387        C  0.80587385  0.61065618  0.43138858     0.36800
C388        C  0.80448607  0.57697099  0.57853677     0.37600
N389        N  0.71959089  0.56114933  0.39793674    -0.43200
N390        N  0.79113934  0.63189062  0.56677396    -0.43700
N391        N  0.80392497  0.57042801  0.60899268    -0.41000
N392        N  0.80632957  0.61768582  0.40162884    -0.42500
H393        H  0.83070016  0.60118913  0.45411824     0.13700
H394        H  0.77948987  0.58532472  0.55439207     0.10200
H395        H  0.76464467  0.57899344  0.43798675     0.11300
H396        H  0.74435959  0.61144354  0.53216787     0.17100
C397        C  0.99276796  0.61983807  0.52608344    -0.01100
C398        C  0.98399158  0.63025769  0.51813169     0.07500
C399        C  0.99595102  0.65017006  0.51065911    -0.07100
C400        C  0.01632186  0.65962858  0.50947612     0.04900
C401        C  0.02517981  0.64907982  0.51615847    -0.14300
C402        C  0.01309671  0.62923180  0.52493490    -0.07700
C403        C  0.96240624  0.62069773  0.51720123     0.05800
C404        C  0.95339075  0.62647164  0.54426337    -0.08800
C405        C  0.93307331  0.61760863  0.54486363     0.00800
C406        C  0.92125234  0.60238816  0.51806725     0.00700
C407        C  0.93047805  0.59708666  0.49027922    -0.12300
C408        C  0.95078449  0.60621380  0.48931443     0.01200
C409        C  0.92495643  0.62434607  0.57379270     0.40500
C410        C  0.95939830  0.60081457  0.45871366     0.37100
C411        C  0.98125095  0.59949923  0.53571970     0.36800
C412        C  0.02755184  0.68000890  0.50024570     0.37600
N413        N  0.91865378  0.62995223  0.59699901    -0.43200
N414        N  0.96630688  0.59652268  0.43413446    -0.43700
N415        N  0.03647303  0.69634281  0.49279167    -0.41000
N416        N  0.97207678  0.58318114  0.54327605    -0.42500
H417        H  0.01950634  0.62086603  0.53049851     0.13700
H418        H  0.98929110  0.65828641  0.50482554     0.10200
H419        H  0.96228327  0.63783707  0.56534693     0.11300
H420        H  0.92180360  0.58574297  0.46902101     0.17100
C421        C  0.58674461  0.77275536  0.53409401    -0.01100
C422        C  0.60238669  0.78856979  0.51388339     0.07500
C423        C  0.61588028  0.78597277  0.49353500    -0.07100
C424        C  0.61318174  0.76763214  0.49062786     0.04900
C425        C  0.59686207  0.75153873  0.50903191    -0.14300
C426        C  0.58422694  0.75455218  0.53178060    -0.07700
C427        C  0.60310623  0.80692199  0.50917840     0.05800
C428        C  0.60475396  0.81791255  0.54253718    -0.08800
C429        C  0.60172283  0.83312565  0.53988981     0.00800
C430        C  0.59698687  0.83756686  0.50312715     0.00700
C431        C  0.59699244  0.82753135  0.46935954    -0.12300
C432        C  0.59981646  0.81226188  0.47211377     0.01200
C433        C  0.60308859  0.84349103  0.57552892     0.40500
C434        C  0.59767416  0.80130035  0.43687873     0.37100
C435        C  0.57215262  0.77443627  0.55474153     0.36800
C436        C  0.62643019  0.76556985  0.46584645     0.37600
N437        N  0.60423203  0.85178494  0.60416132    -0.43200
N438        N  0.59593079  0.79246611  0.40873269    -0.43700
N439        N  0.63700632  0.76394626  0.44575038    -0.41000
N440        N  0.56044356  0.77577865  0.57118602    -0.42500
H441        H  0.57169364  0.74240915  0.54629254     0.13700
H442        H  0.62791108  0.79810012  0.47790803     0.10200
H443        H  0.60755853  0.81401896  0.57101564     0.11300
H444        H  0.59358122  0.83078700  0.44082609     0.17100
C445        C  0.63135094  0.96576636  0.50531920    -0.01100
C446        C  0.62128479  0.97526703  0.50624736     0.07500
C447        C  0.60088963  0.96433062  0.50699901    -0.07100
C448        C  0.59037923  0.94406905  0.50655318     0.04900
C449        C  0.60042889  0.93438795  0.50526765    -0.14300
C450        C  0.62093318  0.94553267  0.50506915    -0.07700
C451        C  0.63177467  0.99664507  0.50654751     0.05800
C452        C  0.63245966  0.00627454  0.47203927    -0.08800
C453        C  0.64200755  0.02648449  0.47136013     0.00800
C454        C  0.65106680  0.03737072  0.50585939     0.00700
C455        C  0.65050641  0.02759182  0.54021579    -0.12300
C456        C  0.64087310  0.00742238  0.54085766     0.01200
C457        C  0.64260286  0.03560196  0.43470480     0.40500
C458        C  0.63995431  0.99801825  0.57735208     0.37100
C459        C  0.65236030  0.97650833  0.50335383     0.36800
C460        C  0.56937173  0.93379875  0.50747653     0.37600
N461        N  0.64309405  0.04286614  0.40524201    -0.43200
N462        N  0.63914726  0.99045300  0.60660032    -0.43700
N463        N  0.55254419  0.92568443  0.50818360    -0.41000
N464        N  0.66919673  0.98511493  0.50161492    -0.42500
H465        H  0.62892984  0.93846343  0.50375640     0.13700
H466        H  0.59316796  0.97169385  0.50791760     0.10200
H467        H  0.62552396  0.99794821  0.44556419     0.11300
H468        H  0.65713787  0.03567031  0.56709026     0.17100
C469        C  0.20191026  0.37697263  0.42537481    -0.01100
C470        C  0.19003867  0.36962901  0.45928316     0.07500
C471        C  0.19582407  0.36277565  0.49045822    -0.07100
C472        C  0.21380395  0.36426485  0.48927538     0.04900
C473        C  0.22647599  0.37299717  0.45641624    -0.14300
C474        C  0.21984353  0.37850539  0.42409706    -0.07700
C475        C  0.17304155  0.37151658  0.46454246     0.05800
C476        C  0.15543156  0.35860375  0.44543931    -0.08800
C477        C  0.13999283  0.36153689  0.44632418     0.00800
C478        C  0.14221137  0.37780097  0.46624012     0.00700
C479        C  0.15972337  0.39039571  0.48608763    -0.12300
C480        C  0.17499042  0.38731527  0.48559291     0.01200
C481        C  0.12257673  0.34838034  0.42447332     0.40500
C482        C  0.19288059  0.40099980  0.50557158     0.37100
C483        C  0.19659789  0.38430101  0.39264726     0.36800
C484        C  0.21905117  0.35742541  0.52292094     0.37600
N485        N  0.10859543  0.33790011  0.40694273    -0.43200
N486        N  0.20724931  0.41189440  0.52154419    -0.43700
N487        N  0.22313366  0.35186131  0.54996401    -0.41000
N488        N  0.19233395  0.39021902  0.36652568    -0.42500
H489        H  0.22912887  0.38502261  0.39839458     0.13700
H490        H  0.18663472  0.35702320  0.51651522     0.10200
H491        H  0.15397863  0.34655771  0.42887126     0.11300
H492        H  0.16163288  0.40291032  0.50152938     0.17100
C493        C  0.96530729  0.33721277  0.50821836    -0.01100
C494        C  0.97381748  0.32806473  0.48984026     0.07500
C495        C  0.96168338  0.30959146  0.47346606    -0.07100
C496        C  0.94131566  0.30044164  0.47401632     0.04900
C497        C  0.93271677  0.30991752  0.49117991    -0.14300
C498        C  0.94502094  0.32822334  0.50852050    -0.07700
C499        C  0.99530482  0.33837245  0.48416810     0.05800
C500        C  0.00614455  0.33288193  0.50570145    -0.08800
C501        C  0.02653858  0.34287695  0.50144597     0.00800
C502        C  0.03640647  0.35865834  0.47491479     0.00700
C503        C  0.02529123  0.36376475  0.45301174    -0.12300
C504        C  0.00504683  0.35382972  0.45736759     0.01200
C505        C  0.03685015  0.33678488  0.52517749     0.40500
C506        C  0.99447149  0.35965318  0.43370248     0.37100
C507        C  0.97716564  0.35587950  0.52697336     0.36800
C508        C  0.92980627  0.28164100  0.45564394     0.37600
N509        N  0.04508986  0.33188794  0.54426557    -0.43200
N510        N  0.98590673  0.36425760  0.41488386    -0.43700
N511        N  0.92068514  0.26656951  0.44086337    -0.41000
N512        N  0.98668144  0.37081880  0.54207153    -0.42500
H513        H  0.93879836  0.33559252  0.52256482     0.13700
H514        H  0.96818822  0.30253551  0.45919723     0.10200
H515        H  0.99867573  0.32094132  0.52628058     0.11300
H516        H  0.03241055  0.37564634  0.43223710     0.17100
C517        C  0.79658599  0.19458276  0.51686865    -0.01100
C518        C  0.79377080  0.18369037  0.48244927     0.07500
C519        C  0.80795877  0.19155592  0.45251578    -0.07100
C520        C  0.82462681  0.21034681  0.45607182     0.04900
C521        C  0.82693867  0.22169571  0.48977856    -0.14300
C522        C  0.81301291  0.21328449  0.52029382    -0.07700
C523        C  0.77516539  0.16487395  0.47664638     0.05800
C524        C  0.76093988  0.16444239  0.45307324    -0.08800
C525        C  0.74140384  0.14913212  0.45591837     0.00800
C526        C  0.73593530  0.13396625  0.48301109     0.00700
C527        C  0.75052969  0.13358448  0.50375748    -0.12300
C528        C  0.77007819  0.14879978  0.50041621     0.01200
C529        C  0.72712615  0.15051774  0.43397344     0.40500
C530        C  0.78456472  0.14830054  0.52347481     0.37100
C531        C  0.78224748  0.18724399  0.54828871     0.36800
C532        C  0.83882726  0.21756826  0.42449384     0.37600
N533        N  0.71568700  0.15167064  0.41650939    -0.43200
N534        N  0.79626368  0.14798133  0.54180925    -0.43700
N535        N  0.85025088  0.22326334  0.39924358    -0.41000
N536        N  0.77073544  0.18130372  0.57338018    -0.42500
H537        H  0.81452977  0.22156925  0.54658827     0.13700
H538        H  0.80582750  0.18312520  0.42610713     0.10200
H539        H  0.76484324  0.17684495  0.43484086     0.11300
H540        H  0.74654249  0.12186582  0.52410288     0.17100
C541        C  0.19365301  0.80782110  0.48265694    -0.01100
C542        C  0.18887839  0.78898294  0.49117856     0.07500
C543        C  0.20381131  0.78567980  0.49648704    -0.07100
C544        C  0.22334617  0.80060111  0.49187396     0.04900
C545        C  0.22829036  0.81936295  0.48101830    -0.14300
C546        C  0.21327761  0.82286260  0.47760076    -0.07700
C547        C  0.16855572  0.77195680  0.49169659     0.05800
C548        C  0.16040026  0.76249631  0.45596178    -0.08800
C549        C  0.14317201  0.74411223  0.45522749     0.00800
C550        C  0.13361376  0.73488131  0.49102763     0.00700
C551        C  0.14120785  0.74505403  0.52666581    -0.12300
C552        C  0.15863284  0.76335874  0.52723147     0.01200
C553        C  0.13616345  0.73493229  0.41727119     0.40500
C554        C  0.16654971  0.77274126  0.56462485     0.37100
C555        C  0.17866766  0.81196527  0.47909689     0.36800
C556        C  0.23793697  0.79619091  0.49927316     0.37600
N557        N  0.13067525  0.72760362  0.38679652    -0.43200
N558        N  0.17294233  0.78031458  0.59454465    -0.43700
N559        N  0.24960067  0.79265118  0.50541888    -0.41000
N560        N  0.16665209  0.81531308  0.47661319    -0.42500
H561        H  0.21681298  0.83721469  0.47003012     0.13700
H562        H  0.20012585  0.77121881  0.50362047     0.10200
H563        H  0.16810988  0.76908864  0.42860259     0.11300
H564        H  0.13410423  0.73830834  0.55437086     0.17100
C565        C  0.35669116  0.18981592  0.46393242    -0.01100
C566        C  0.36046055  0.18081807  0.49460611     0.07500
C567        C  0.36685931  0.19023931  0.53107660    -0.07100
C568        C  0.37075274  0.20888457  0.53658757     0.04900
C569        C  0.36835247  0.21853560  0.50498363    -0.14300
C570        C  0.36052405  0.20850406  0.46939319    -0.07700
C571        C  0.36032324  0.16285124  0.48829334     0.05800
C572        C  0.37480373  0.16381991  0.46395415    -0.08800
C573        C  0.37790157  0.14866337  0.46285972     0.00800
C574        C  0.36602401  0.13187541  0.48580196     0.00700
C575        C  0.35071563  0.13040690  0.50821986    -0.12300
C576        C  0.34800305  0.14586142  0.51011976     0.01200
C577        C  0.39375061  0.15099622  0.43880690     0.40500
C578        C  0.33305854  0.14435256  0.53587576     0.37100
C579        C  0.34931113  0.18031626  0.42642219     0.36800
C580        C  0.37743035  0.21779965  0.57487410     0.37600
N581        N  0.40652881  0.15295883  0.41970369    -0.43200
N582        N  0.32117432  0.14326087  0.55665929    -0.43700
N583        N  0.38275345  0.22490281  0.60557961    -0.41000
N584        N  0.34333098  0.17271598  0.39635142    -0.42500
H585        H  0.35836449  0.21562684  0.44508278     0.13700
H586        H  0.36965499  0.18331682  0.55484319     0.10200
H587        H  0.38443755  0.17693505  0.44742615     0.11300
H588        H  0.34164640  0.11769110  0.52622186     0.17100
C589        C  0.30755700  0.95188079  0.48643630    -0.01100
C590        C  0.32773920  0.96586893  0.48722776     0.07500
C591        C  0.34076565  0.95975247  0.48467131    -0.07100
C592        C  0.33401838  0.94009530  0.47997128     0.04900
C593        C  0.31372673  0.92601170  0.47790873    -0.14300
C594        C  0.30074995  0.93223073  0.48181860    -0.07700
C595        C  0.33558048  0.98695504  0.49045449     0.05800
C596        C  0.34518716  0.99689015  0.52499404    -0.08800
C597        C  0.35317481  0.01681763  0.52881331     0.00800
C598        C  0.35187389  0.02729106  0.49733675     0.00700
C599        C  0.34182992  0.01722591  0.46314616    -0.12300
C600        C  0.33381973  0.99726381  0.45942446     0.01200
C601        C  0.36205880  0.02603126  0.56587776     0.40500
C602        C  0.32443771  0.98774886  0.42297099     0.37100
C603        C  0.29356222  0.95737732  0.49061567     0.36800
C604        C  0.34832872  0.93493236  0.47780881     0.37600
N605        N  0.36908765  0.03347580  0.59556763    -0.43200
N606        N  0.31687840  0.98003719  0.39382896    -0.43700
N607        N  0.35985369  0.93086290  0.47614413    -0.41000
N608        N  0.28239420  0.96184898  0.49391588    -0.42500
H609        H  0.28516741  0.92174108  0.48073696     0.13700
H610        H  0.35631056  0.97044395  0.48582978     0.10200
H611        H  0.34635408  0.98900319  0.54913666     0.11300
H612        H  0.34077711  0.02506501  0.43876817     0.17100
C613        C  0.27935704  0.39328406  0.19712086    -0.01100
C614        C  0.29616367  0.41044047  0.21035701     0.07500
C615        C  0.30778165  0.42518939  0.18333156    -0.07100
C616        C  0.30298313  0.42287234  0.14315852     0.04900
C617        C  0.28630816  0.40540156  0.12960445    -0.14300
C618        C  0.27462778  0.39086566  0.15718104    -0.07700
C619        C  0.30121320  0.41303209  0.25271216     0.05800
C620        C  0.30795583  0.40213444  0.26914654    -0.08800
C621        C  0.30867780  0.40060767  0.31007457     0.00800
C622        C  0.30286896  0.41043331  0.33526100     0.00700
C623        C  0.29763052  0.42257540  0.31857706    -0.12300
C624        C  0.29649033  0.42371005  0.27763158     0.01200
C625        C  0.31481383  0.38836427  0.32521916     0.40500
C626        C  0.28878845  0.43450522  0.26195405     0.37100
C627        C  0.26649876  0.37811838  0.22431825     0.36800
C628        C  0.31513519  0.43883863  0.11699195     0.37600
N629        N  0.31966826  0.37847134  0.33715907    -0.43200
N630        N  0.28247143  0.44302169  0.24934574    -0.43700
N631        N  0.32483259  0.45169809  0.09610947    -0.41000
N632        N  0.25624101  0.36609344  0.24635055    -0.42500
H633        H  0.26172782  0.37743642  0.14759169     0.13700
H634        H  0.32054536  0.43853289  0.19370462     0.10200
H635        H  0.31158063  0.39390531  0.24990708     0.11300
H636        H  0.29302336  0.43009049  0.33751449     0.17100
C637        C  0.40632139  0.27997740  0.78605878    -0.01100
C638        C  0.40510300  0.29352215  0.76334547     0.07500
C639        C  0.40247241  0.30717349  0.78213443    -0.07100
C640        C  0.39984206  0.30677388  0.82304313     0.04900
C641        C  0.39953473  0.29220587  0.84579138    -0.14300
C642        C  0.40364045  0.27947068  0.82692756    -0.07700
C643        C  0.40376241  0.29196757  0.71992929     0.05800
C644        C  0.38522277  0.28264212  0.70318274    -0.08800
C645        C  0.38282739  0.28046056  0.66237848     0.00800
C646        C  0.39936359  0.28778981  0.63731077     0.00700
C647        C  0.41800040  0.29729235  0.65439405    -0.12300
C648        C  0.42028146  0.29937980  0.69539972     0.01200
C649        C  0.36319153  0.27088208  0.64750402     0.40500
C650        C  0.43962805  0.30925987  0.71172751     0.37100
C651        C  0.40904894  0.26567790  0.76778176     0.36800
C652        C  0.39678128  0.32105904  0.84021991     0.37600
N653        N  0.34743175  0.26319931  0.63574490    -0.43200
N654        N  0.45512640  0.31719385  0.72489942    -0.43700
N655        N  0.39437816  0.33258740  0.85373907    -0.41000
N656        N  0.41121049  0.25419715  0.75316042    -0.42500
H657        H  0.40376035  0.26837865  0.84377696     0.13700
H658        H  0.40166155  0.31767448  0.76451344     0.10200
H659        H  0.37252321  0.27698592  0.72224460     0.11300
H660        H  0.43083283  0.30300334  0.63576640     0.17100
C661        C  0.29115151  0.32501932  0.99275037    -0.01100
C662        C  0.31041776  0.33327987  0.97876232     0.07500
C663        C  0.32077893  0.35247423  0.96549824    -0.07100
C664        C  0.31281872  0.36382861  0.96805109     0.04900
C665        C  0.29360376  0.35574093  0.98275231    -0.14300
C666        C  0.28287562  0.33617609  0.99421011    -0.07700
C667        C  0.32044523  0.32258097  0.97894713     0.05800
C668        C  0.31265033  0.30530390  0.95742988    -0.08800
C669        C  0.32226101  0.29540522  0.95546168     0.00800
C670        C  0.34012458  0.30280156  0.97554723     0.00700
C671        C  0.34774752  0.32004180  0.99726240    -0.12300
C672        C  0.33817781  0.32990350  0.99907273     0.01200
C673        C  0.31362862  0.27808431  0.93162728     0.40500
C674        C  0.34690111  0.34753450  0.02197325     0.37100
C675        C  0.27992811  0.30548196  0.00767815     0.36800
C676        C  0.32512118  0.38385916  0.95643186     0.37600
N677        N  0.30664188  0.26424865  0.91235627    -0.43200
N678        N  0.35397071  0.36174109  0.04005311    -0.43700
N679        N  0.33515862  0.39994183  0.94746561    -0.41000
N680        N  0.27090392  0.28983966  0.01973240    -0.42500
H681        H  0.26820263  0.32972266  0.00578253     0.13700
H682        H  0.33547628  0.35882207  0.95408860     0.10200
H683        H  0.29919394  0.29974652  0.94137948     0.11300
H684        H  0.36139911  0.32602276  0.01280125     0.17100
C685        C  0.55363994  0.67128879  0.29621939    -0.01100
C686        C  0.56174823  0.68814618  0.27292559     0.07500
C687        C  0.57029396  0.70622376  0.29178818    -0.07100
C688        C  0.57196099  0.70779129  0.33292617     0.04900
C689        C  0.56487362  0.69098525  0.35598658    -0.14300
C690        C  0.55523504  0.67284943  0.33728712    -0.07700
C691        C  0.56228546  0.68728892  0.22905220     0.05800
C692        C  0.54486977  0.67587690  0.20804112    -0.08800
C693        C  0.54500899  0.67394052  0.16691590     0.00800
C694        C  0.56287560  0.68397571  0.14587475     0.00700
C695        C  0.58020617  0.69573414  0.16698537    -0.12300
C696        C  0.58009216  0.69732723  0.20800484     0.01200
C697        C  0.52659601  0.66170764  0.14737005     0.40500
C698        C  0.59858675  0.70882317  0.22777488     0.37100
C699        C  0.54429424  0.65223631  0.27881183     0.36800
C700        C  0.58055627  0.72672221  0.35064557     0.37600
N701        N  0.51178496  0.65182945  0.13190503    -0.43200
N702        N  0.61344531  0.71807713  0.24342632    -0.43700
N703        N  0.58730457  0.74189853  0.36472859    -0.41000
N704        N  0.53662844  0.63691997  0.26502419    -0.42500
H705        H  0.54960792  0.65983307  0.35470720     0.13700
H706        H  0.57597433  0.71919715  0.27420692     0.10200
H707        H  0.53109827  0.66831911  0.22391020     0.11300
H708        H  0.59408000  0.70346508  0.15149108     0.17100
C709        C  0.65902594  0.54056936  0.78275355    -0.01100
C710        C  0.66320824  0.55636159  0.75897492     0.07500
C711        C  0.66711185  0.57351750  0.77676263    -0.07100
C712        C  0.66766802  0.57542434  0.81783198     0.04900
C713        C  0.66467433  0.56003322  0.84192438    -0.14300
C714        C  0.65986497  0.54251420  0.82394093    -0.07700
C715        C  0.66412639  0.55561756  0.71542278     0.05800
C716        C  0.64769501  0.55091101  0.69338641    -0.08800
C717        C  0.64854956  0.55171927  0.65208303     0.00800
C718        C  0.66616975  0.55728041  0.63220309     0.00700
C719        C  0.68252520  0.56176141  0.65454535    -0.12300
C720        C  0.68162675  0.56096404  0.69577010     0.01200
C721        C  0.63152875  0.54804273  0.63122186     0.40500
C722        C  0.69898438  0.56620887  0.71737380     0.37100
C723        C  0.65389821  0.52232004  0.76541831     0.36800
C724        C  0.67075159  0.59312168  0.83432932     0.37600
N725        N  0.61789165  0.54520812  0.61464796    -0.43200
N726        N  0.71292078  0.57044358  0.73462072    -0.43700
N727        N  0.67304296  0.60723120  0.84753329    -0.41000
N728        N  0.64963260  0.50765592  0.75143855    -0.42500
H729        H  0.65725488  0.53048756  0.84198346     0.13700
H730        H  0.66986371  0.58551252  0.75840614     0.10200
H731        H  0.63432476  0.54711354  0.70858862     0.11300
H732        H  0.69616362  0.56615842  0.63978357     0.17100
C733        C  0.62158114  0.60440468  0.98416511    -0.01100
C734        C  0.63262205  0.62411129  0.99473733     0.07500
C735        C  0.65238631  0.63286933  0.00373485    -0.07100
C736        C  0.66131065  0.62230738  0.00188230     0.04900
C737        C  0.65045838  0.60267190  0.98965278    -0.14300
C738        C  0.63054136  0.59396328  0.98126408    -0.07700
C739        C  0.62335762  0.63536030  0.99888461     0.05800
C740        C  0.61280133  0.63317933  0.03336229    -0.08800
C741        C  0.60289601  0.64263564  0.03794355     0.00800
C742        C  0.60291615  0.65409621  0.00695526     0.00700
C743        C  0.61407918  0.65676738  0.97289912    -0.12300
C744        C  0.62441938  0.64766609  0.96885717     0.01200
C745        C  0.59377356  0.64113234  0.07560243     0.40500
C746        C  0.63604520  0.65118413  0.93380109     0.37100
C747        C  0.60095170  0.59454837  0.97661152     0.36800
C748        C  0.68132153  0.63182026  0.01431581     0.37600
N749        N  0.58672346  0.64012470  0.10600586    -0.43200
N750        N  0.64551739  0.65420713  0.90584887    -0.43700
N751        N  0.69729230  0.63939944  0.02475048    -0.41000
N752        N  0.58439140  0.58662916  0.97089843    -0.42500
H753        H  0.62184615  0.57889835  0.97233360     0.13700
H754        H  0.66074605  0.64789852  0.01302219     0.10200
H755        H  0.61241526  0.62411671  0.05691021     0.11300
H756        H  0.61458921  0.66582321  0.94922018     0.17100
C757        C  0.87665831  0.56663040  0.79774253    -0.01100
C758        C  0.85967392  0.55185912  0.77893921     0.07500
C759        C  0.84430127  0.53744830  0.80183473    -0.07100
C760        C  0.84509648  0.53832538  0.84316240     0.04900
C761        C  0.86159170  0.55393507  0.86212765    -0.14300
C762        C  0.87745156  0.56759386  0.83886517    -0.07700
C763        C  0.85709362  0.55231449  0.73580735     0.05800
C764        C  0.85552986  0.53765685  0.71147426    -0.08800
C765        C  0.85409442  0.53840994  0.67034934     0.00800
C766        C  0.85426152  0.55415220  0.65312565     0.00700
C767        C  0.85499189  0.56828260  0.67800634    -0.12300
C768        C  0.85629389  0.56744805  0.71878589     0.01200
C769        C  0.85216558  0.52272125  0.64697053     0.40500
C770        C  0.85675366  0.58235279  0.74255003     0.37100
C771        C  0.89324982  0.58130689  0.77539520     0.36800
C772        C  0.82834057  0.52361969  0.86499867     0.37600
N773        N  0.85050350  0.51001345  0.62851336    -0.43200
N774        N  0.85719505  0.59436431  0.76144164    -0.43700
N775        N  0.81488265  0.51180518  0.88241933    -0.41000
N776        N  0.90647953  0.59311264  0.75745185    -0.42500
H777        H  0.89038298  0.57945012  0.85279536     0.13700
H778        H  0.83128112  0.52598632  0.78738609     0.10200
H779        H  0.85571328  0.52576948  0.72461244     0.11300
H780        H  0.85487661  0.58034209  0.66560910     0.17100
C781        C  0.80741711  0.60035567  0.95261892    -0.01100
C782        C  0.79346026  0.59410862  0.98319549     0.07500
C783        C  0.79627876  0.58684761  0.01801825    -0.07100
C784        C  0.81204649  0.58461200  0.02171026     0.04900
C785        C  0.82522504  0.58952813  0.98985852    -0.14300
C786        C  0.82300260  0.59784646  0.95597167    -0.07700
C787        C  0.77456473  0.59241253  0.97735042     0.05800
C788        C  0.76193567  0.57952533  0.94852278    -0.08800
C789        C  0.74314911  0.57572723  0.94419833     0.00800
C790        C  0.73650884  0.58485617  0.96950246     0.00700
C791        C  0.74951016  0.59833470  0.99742892    -0.12300
C792        C  0.76837370  0.60214111  0.00149304     0.01200
C793        C  0.73114228  0.56225275  0.91364940     0.40500
C794        C  0.78119390  0.61619499  0.03034258     0.37100
C795        C  0.80584175  0.60911089  0.91733072     0.36800
C796        C  0.81330287  0.57567917  0.05707378     0.37600
N797        N  0.72161001  0.55145526  0.88911039    -0.43200
N798        N  0.79150851  0.62753962  0.05333943    -0.43700
N799        N  0.81422824  0.56849369  0.08544898    -0.41000
N800        N  0.80463581  0.61624630  0.88917262    -0.42500
H801        H  0.83317054  0.60189392  0.93155855     0.13700
H802        H  0.78551789  0.58189950  0.04152719     0.10200
H803        H  0.76664807  0.57200078  0.92987080     0.11300
H804        H  0.74483520  0.60565599  0.01675983     0.17100
C805        C  0.09840078  0.65208693  0.31552520    -0.01100
C806        C  0.08486877  0.65244595  0.29078333     0.07500
C807        C  0.06910174  0.65243887  0.30732351    -0.07100
C808        C  0.06741645  0.65355209  0.34812482     0.04900
C809        C  0.08183714  0.65476196  0.37309634    -0.14300
C810        C  0.09673293  0.65311891  0.35645256    -0.07700
C811        C  0.08808498  0.65541886  0.24785629     0.05800
C812        C  0.07832755  0.63954730  0.22232400    -0.08800
C813        C  0.07922013  0.64224551  0.18141963     0.00800
C814        C  0.09026471  0.66118230  0.16560857     0.00700
C815        C  0.10027077  0.67699927  0.19154886    -0.12300
C816        C  0.09914623  0.67426576  0.23232007     0.01200
C817        C  0.06756902  0.62543917  0.15685714     0.40500
C818        C  0.10867780  0.69102944  0.25786958     0.37100
C819        C  0.11455046  0.65155084  0.29951153     0.36800
C820        C  0.05098737  0.65388928  0.36319690     0.37600
N821        N  0.05807530  0.61194461  0.13730140    -0.43200
N822        N  0.11614817  0.70437953  0.27853271    -0.43700
N823        N  0.03780390  0.65416762  0.37510483    -0.41000
N824        N  0.12750102  0.65107562  0.28684177    -0.42500
H825        H  0.10775455  0.65376674  0.37520002     0.13700
H826        H  0.05858032  0.65249537  0.28812575     0.10200
H827        H  0.06944056  0.62509064  0.23448817     0.11300
H828        H  0.10868986  0.69162067  0.18003543     0.17100
C829        C  0.99696475  0.62146427  0.00741207    -0.01100
C830        C  0.98757613  0.63019949  0.02356143     0.07500
C831        C  0.99871220  0.64823784  0.04225905    -0.07100
C832        C  0.01899236  0.65761910  0.04519771     0.04900
C833        C  0.02852757  0.64901619  0.02848822    -0.14300
C834        C  0.01723013  0.63092123  0.00973920    -0.07700
C835        C  0.96610772  0.62057496  0.02159696     0.05800
C836        C  0.95417338  0.60338469  0.04261596    -0.08800
C837        C  0.93384615  0.59328838  0.03989816     0.00800
C838        C  0.92509235  0.60053931  0.01597328     0.00700
C839        C  0.93713174  0.61811686  0.99595647    -0.12300
C840        C  0.95746631  0.62805089  0.99835479     0.01200
C841        C  0.92242904  0.57563571  0.06221790     0.40500
C842        C  0.96919969  0.64537331  0.97522548     0.37100
C843        C  0.98609774  0.60282734  0.98814011     0.36800
C844        C  0.02937487  0.67554860  0.06708601     0.37600
N845        N  0.91332755  0.56148555  0.08012074    -0.43200
N846        N  0.97865074  0.65921715  0.95661119    -0.43700
N847        N  0.03763318  0.68983910  0.08490886    -0.41000
N848        N  0.97735650  0.58784384  0.97290367    -0.42500
H849        H  0.02421437  0.62402557  0.99694258     0.13700
H850        H  0.99145590  0.65482965  0.05522993     0.10200
H851        H  0.96081297  0.59771931  0.06083282     0.11300
H852        H  0.93068226  0.62375866  0.97712410     0.17100
C853        C  0.53657103  0.85800288  0.21532929    -0.01100
C854        C  0.55055263  0.85749794  0.23841901     0.07500
C855        C  0.56426787  0.85468987  0.21999796    -0.07100
C856        C  0.56518861  0.85378005  0.17902993     0.04900
C857        C  0.55196404  0.85546049  0.15549161    -0.14300
C858        C  0.53730978  0.85689018  0.17408831    -0.07700
C859        C  0.55221006  0.86109429  0.28153098     0.05800
C860        C  0.53725745  0.84788521  0.30689514    -0.08800
C861        C  0.53948691  0.84995123  0.34793804     0.00800
C862        C  0.55712693  0.86538941  0.36403762     0.00700
C863        C  0.57168303  0.87895772  0.33839482    -0.12300
C864        C  0.56933531  0.87701034  0.29762367     0.01200
C865        C  0.52374655  0.83561582  0.37246188     0.40500
C866        C  0.58479238  0.89153470  0.27282100     0.37100
C867        C  0.52200533  0.86059106  0.23319271     0.36800
C868        C  0.57991857  0.85112860  0.16218094     0.37600
N869        N  0.51109023  0.82413264  0.39205461    -0.43200
N870        N  0.59717349  0.90314603  0.25293039    -0.43700
N871        N  0.59177287  0.84905466  0.14882085    -0.41000
N872        N  0.51033258  0.86262415  0.24768555    -0.42500
H873        H  0.52694849  0.85796928  0.15639646     0.13700
H874        H  0.57472150  0.85379639  0.23781325     0.10200
H875        H  0.52406588  0.83563496  0.29458007     0.11300
H876        H  0.58511877  0.89110678  0.35017626     0.17100
C877        C  0.60040074  0.81095748  0.98018322    -0.01100
C878        C  0.59402074  0.79557804  0.00694252     0.07500
C879        C  0.58389631  0.79491536  0.04108105    -0.07100
C880        C  0.57886273  0.80845841  0.04765672     0.04900
C881        C  0.58417552  0.82327057  0.01974100    -0.14300
C882        C  0.59559325  0.82476939  0.98692483    -0.07700
C883        C  0.59562559  0.77873417  0.99879051     0.05800
C884        C  0.60595286  0.77455001  0.02526282    -0.08800
C885        C  0.60367590  0.75638185  0.02515494     0.00800
C886        C  0.59093796  0.74209000  0.99787106     0.00700
C887        C  0.58160722  0.74676134  0.96978983    -0.12300
C888        C  0.58377305  0.76484902  0.97012591     0.01200
C889        C  0.61278450  0.75212492  0.05617714     0.40500
C890        C  0.57223652  0.76811737  0.94322890     0.37100
C891        C  0.61129567  0.81245695  0.94512096     0.36800
C892        C  0.56784777  0.80641216  0.08295754     0.37600
N893        N  0.61993264  0.74866085  0.08126456    -0.43200
N894        N  0.56297998  0.77075453  0.92176017    -0.43700
N895        N  0.55893083  0.80463009  0.11116734    -0.41000
N896        N  0.61995494  0.81362098  0.91690718    -0.42500
H897        H  0.59992030  0.83613720  0.96546232     0.13700
H898        H  0.57907600  0.78315980  0.06184936     0.10200
H899        H  0.61474010  0.78504161  0.04786053     0.11300
H900        H  0.57169877  0.73584507  0.94890539     0.17100
C901        C  0.67069652  0.10152352  0.79000066    -0.01100
C902        C  0.65413079  0.09795359  0.76949724     0.07500
C903        C  0.63707531  0.09255540  0.79066514    -0.07100
C904        C  0.63629625  0.09055203  0.83185632     0.04900
C905        C  0.65275032  0.09353146  0.85240006    -0.14300
C906        C  0.66986898  0.09925691  0.83086505    -0.07700
C907        C  0.65426745  0.09882805  0.72581474     0.05800
C908        C  0.64364183  0.08152043  0.70437885    -0.08800
C909        C  0.64580421  0.08130896  0.66336177     0.00800
C910        C  0.65918822  0.09869823  0.64333535     0.00700
C911        C  0.66892434  0.11612651  0.66471319    -0.12300
C912        C  0.66629522  0.11634822  0.70546908     0.01200
C913        C  0.63480932  0.06292393  0.64314890     0.40500
C914        C  0.67609123  0.13470375  0.72586332     0.37100
C915        C  0.68860089  0.10700924  0.76961604     0.36800
C916        C  0.61841219  0.08533348  0.85187362     0.37600
N917        N  0.62587807  0.04817405  0.62706165    -0.43200
N918        N  0.68382367  0.14945010  0.74208801    -0.43700
N919        N  0.60406825  0.08126319  0.86777042    -0.41000
N920        N  0.70297308  0.11150709  0.75331258    -0.42500
H921        H  0.68273037  0.10182414  0.84589485     0.13700
H922        H  0.62433624  0.08986391  0.77490588     0.10200
H923        H  0.63420277  0.06803684  0.71994924     0.11300
H924        H  0.67877447  0.12963812  0.64959169     0.17100
C925        C  0.61587159  0.95257235  0.99364099    -0.01100
C926        C  0.60523326  0.96127018  0.00024409     0.07500
C927        C  0.58539044  0.94967158  0.00958455    -0.07100
C928        C  0.57603002  0.92958059  0.01304314     0.04900
C929        C  0.58665796  0.92065875  0.00696363    -0.14300
C930        C  0.60659463  0.93244266  0.99713312    -0.07700
C931        C  0.61439843  0.98246487  0.99714426     0.05800
C932        C  0.61240461  0.99005038  0.96203758    -0.08800
C933        C  0.62021782  0.00990026  0.95822058     0.00800
C934        C  0.63019637  0.02256839  0.99018581     0.00700
C935        C  0.63243096  0.01491332  0.02516668    -0.12300
C936        C  0.62449913  0.99500533  0.02893255     0.01200
C937        C  0.61835405  0.01689112  0.92066772     0.40500
C938        C  0.62648246  0.98766022  0.06589338     0.37100
C939        C  0.63626558  0.96407169  0.98300222     0.36800
C940        C  0.55563597  0.91873177  0.02383322     0.37600
N941        N  0.61692820  0.02250278  0.89052675    -0.43200
N942        N  0.62799310  0.98172960  0.09553849    -0.43700
N943        N  0.53929852  0.91008254  0.03253133    -0.41000
N944        N  0.65259830  0.97337604  0.97438593    -0.42500
H945        H  0.61499955  0.92595746  0.99220043     0.13700
H946        H  0.57721529  0.95641199  0.01453247     0.10200
H947        H  0.60471889  0.98039425  0.93751254     0.11300
H948        H  0.64004223  0.02443246  0.04989617     0.17100
C949        C  0.10574197  0.41884831  0.17740702    -0.01100
C950        C  0.09450687  0.40315545  0.20314742     0.07500
C951        C  0.07892836  0.38569846  0.18793805    -0.07100
C952        C  0.07495075  0.38338081  0.14754730     0.04900
C953        C  0.08657317  0.39890769  0.12142376    -0.14300
C954        C  0.10161444  0.41667153  0.13699417    -0.07700
C955        C  0.09885566  0.40430830  0.24591178     0.05800
C956        C  0.09757170  0.41754311  0.26995200    -0.08800
C957        C  0.09987376  0.41776162  0.31091800     0.00800
C958        C  0.10293529  0.40407076  0.32865190     0.00700
C959        C  0.10515544  0.39149931  0.30412797    -0.12300
C960        C  0.10338375  0.39168027  0.26319665     0.01200
C961        C  0.09865804  0.43197069  0.33374614     0.40500
C962        C  0.10651199  0.37893212  0.23940442     0.37100
C963        C  0.12221371  0.43694944  0.19142389     0.36800
C964        C  0.05883646  0.36490164  0.13397989     0.37600
N965        N  0.09784954  0.44349113  0.35193098    -0.43200
N966        N  0.10911877  0.36882860  0.22020894    -0.43700
N967        N  0.04595098  0.35007039  0.12315665    -0.41000
N968        N  0.13544928  0.45143338  0.20268497    -0.42500
H969        H  0.11072857  0.42867885  0.11736201     0.13700
H970        H  0.07001717  0.37369639  0.20775116     0.10200
H971        H  0.09435518  0.42747306  0.25672919     0.11300
H972        H  0.10809874  0.38129568  0.31694103     0.17100
C973        C  0.17545095  0.35542483  0.00861073    -0.01100
C974        C  0.17144515  0.36544455  0.98069085     0.07500
C975        C  0.18573508  0.37697781  0.95244980    -0.07100
C976        C  0.20416918  0.37955584  0.95315514     0.04900
C977        C  0.20870233  0.37077604  0.98318292    -0.14300
C978        C  0.19400421  0.35831970  0.00993616    -0.07700
C979        C  0.15369364  0.36627911  0.98381475     0.05800
C980        C  0.15066372  0.37359271  0.01872402    -0.08800
C981        C  0.13558086  0.37684956  0.02194066     0.00800
C982        C  0.12318535  0.37294111  0.98953464     0.00700
C983        C  0.12556672  0.36470968  0.95525951    -0.12300
C984        C  0.14076901  0.36150202  0.95206939     0.01200
C985        C  0.13312616  0.38411688  0.05900172     0.40500
C986        C  0.14298182  0.35355104  0.91582754     0.37100
C987        C  0.16082575  0.34235282  0.03660116     0.36800
C988        C  0.21853487  0.39248800  0.92458855     0.37600
N989        N  0.13112169  0.38988959  0.08869653    -0.43200
N990        N  0.14479781  0.34723523  0.88671795    -0.43700
N991        N  0.23001301  0.40284023  0.90164315    -0.41000
N992        N  0.14905838  0.33183906  0.05892201    -0.42500
H993        H  0.19717608  0.35121248  0.03264261     0.13700
H994        H  0.18284118  0.38483797  0.93104014     0.10200
H995        H  0.16052098  0.37733157  0.04326999     0.11300
H996        H  0.11605776  0.36152421  0.93032763     0.17100
C997        C  0.84837931  0.26601718  0.77335523    -0.01100
C998        C  0.85052279  0.28192725  0.75293407     0.07500
C999        C  0.85063684  0.29669187  0.77419421    -0.07100
C1000       C  0.84983378  0.29637379  0.81555673     0.04900
C1001       C  0.84887139  0.28097968  0.83619298    -0.14300
C1002       C  0.84762498  0.26569448  0.81449552    -0.07700
C1003       C  0.85422471  0.28411083  0.70980483     0.05800
C1004       C  0.84018486  0.28301893  0.68450316    -0.08800
C1005       C  0.84306338  0.28432133  0.64348159     0.00800
C1006       C  0.86039456  0.28691133  0.62730476     0.00700
C1007       C  0.87455944  0.28843283  0.65297634    -0.12300
C1008       C  0.87166828  0.28714979  0.69378126     0.01200
C1009       C  0.82757206  0.28195431  0.61890710     0.40500
C1010       C  0.88686802  0.28906869  0.71871180     0.37100
C1011       C  0.84732214  0.25002158  0.75277615     0.36800
C1012       C  0.85103761  0.31249117  0.83578612     0.37600
N1013       N  0.81505904  0.27997541  0.59940512    -0.43200
N1014       N  0.89898635  0.29053337  0.73876177    -0.43700
N1015       N  0.85203079  0.32545790  0.85188735    -0.41000
N1016       N  0.84654888  0.23721198  0.73644549    -0.42500
H1017       H  0.84639122  0.25351655  0.82971627     0.13700
H1018       H  0.85215848  0.30888404  0.75846834     0.10200
H1019       H  0.82676049  0.28068838  0.69681415     0.11300
H1020       H  0.88797666  0.29056101  0.64112590     0.17100
C1021       C  0.94391321  0.30497568  0.98471692    -0.01100
C1022       C  0.95620224  0.32518723  0.98029928     0.07500
C1023       C  0.94789121  0.33605424  0.97426186    -0.07100
C1024       C  0.92765938  0.32719786  0.97268925     0.04900
C1025       C  0.91514447  0.30688203  0.97753779    -0.14300
C1026       C  0.92360612  0.29602404  0.98344818    -0.07700
C1027       C  0.97778800  0.33549194  0.98226741     0.05800
C1028       C  0.98804053  0.33268978  0.95232926    -0.08800
C1029       C  0.00850600  0.34320279  0.95208415     0.00800
C1030       C  0.01902567  0.35686055  0.98225605     0.00700
C1031       C  0.00864573  0.35942862  0.01231587    -0.12300
C1032       C  0.98828004  0.34888286  0.01263245     0.01200
C1033       C  0.01825135  0.34034952  0.91958403     0.40500
C1034       C  0.97843525  0.35186850  0.04476232     0.37100
C1035       C  0.95183499  0.29321633  0.99123382     0.36800
C1036       C  0.92039364  0.33943864  0.96504611     0.37600
N1037       N  0.02598644  0.33806545  0.89336292    -0.43200
N1038       N  0.97054210  0.35424670  0.07051831    -0.43700
N1039       N  0.91466183  0.34931278  0.95873899    -0.41000
N1040       N  0.95825314  0.28384568  0.99638306    -0.42500
H1041       H  0.91436221  0.28046286  0.98702133     0.13700
H1042       H  0.95733880  0.35160008  0.97046805     0.10200
H1043       H  0.98002709  0.32256876  0.92864793     0.11300
H1044       H  0.01647907  0.36964118  0.03598201     0.17100
C1045       C  0.77721501  0.18885670  0.94627799    -0.01100
C1046       C  0.77473008  0.17780025  0.97989713     0.07500
C1047       C  0.78961115  0.18502247  0.00789707    -0.07100
C1048       C  0.80650241  0.20357843  0.00380308     0.04900
C1049       C  0.80843496  0.21525442  0.97137166    -0.14300
C1050       C  0.79394300  0.20736778  0.94224995    -0.07700
C1051       C  0.75565100  0.15991827  0.98831141     0.05800
C1052       C  0.75059823  0.14263704  0.96927666    -0.08800
C1053       C  0.73147385  0.12637653  0.97130963     0.00800
C1054       C  0.71706135  0.12740632  0.99272990     0.00700
C1055       C  0.72256416  0.14451748  0.01336337    -0.12300
C1056       C  0.74161008  0.16069105  0.01119866     0.01200
C1057       C  0.72689201  0.10945136  0.94881338     0.40500
C1058       C  0.74613545  0.17835217  0.03062271     0.37100
C1059       C  0.76222842  0.18193765  0.91672162     0.36800
C1060       C  0.82096955  0.21053931  0.03439624     0.37600
N1061       N  0.72331444  0.09595080  0.93062884    -0.43200
N1062       N  0.74978666  0.19254276  0.04601086    -0.43700
N1063       N  0.83257891  0.21608048  0.05890425    -0.41000
N1064       N  0.75018757  0.17637494  0.89312933    -0.42500
H1065       H  0.79529145  0.21596344  0.91685687     0.13700
H1066       H  0.78764380  0.17645918  0.03377846     0.10200
H1067       H  0.76140308  0.14216031  0.95131869     0.11300
H1068       H  0.71175730  0.14556706  0.03002327     0.17100
C1069       C  0.28852805  0.87368420  0.18406119    -0.01100
C1070       C  0.29542478  0.86273111  0.20004577     0.07500
C1071       C  0.30189693  0.85377779  0.17458816    -0.07100
C1072       C  0.30122173  0.85534131  0.13349495     0.04900
C1073       C  0.29394838  0.86604996  0.11743670    -0.14300
C1074       C  0.28777103  0.87519201  0.14321012    -0.07700
C1075       C  0.29526295  0.86016103  0.24334318     0.05800
C1076       C  0.27726834  0.84884101  0.26262830    -0.08800
C1077       C  0.27600929  0.84830477  0.30381997     0.00800
C1078       C  0.29306652  0.85946642  0.32665305     0.00700
C1079       C  0.31122990  0.86982846  0.30715563    -0.12300
C1080       C  0.31241876  0.87025423  0.26580294     0.01200
C1081       C  0.25699170  0.83606400  0.32163641     0.40500
C1082       C  0.33124801  0.88184648  0.24693074     0.37100
C1083       C  0.28229296  0.88364581  0.20917358     0.36800
C1084       C  0.30717586  0.84506975  0.10865957     0.37600
N1085       N  0.24173727  0.82618705  0.33579866    -0.43200
N1086       N  0.34628219  0.89107714  0.23153718    -0.43700
N1087       N  0.31187725  0.83680513  0.08864932    -0.41000
N1088       N  0.27735531  0.89161691  0.22946674    -0.42500
H1089       H  0.28231408  0.88359537  0.13142404     0.13700
H1090       H  0.30711692  0.84526136  0.18686120     0.10200
H1091       H  0.26407647  0.84081409  0.24531386     0.11300
H1092       H  0.32447081  0.87823961  0.32414515     0.17100
C1093       C  0.20285809  0.78718541  0.98080950    -0.01100
C1094       C  0.18768952  0.78842938  0.99738756     0.07500
C1095       C  0.19145182  0.80639185  0.01009085    -0.07100
C1096       C  0.21018414  0.82309944  0.00686582     0.04900
C1097       C  0.22546304  0.82191126  0.99010728    -0.14300
C1098       C  0.22145966  0.80386705  0.97687188    -0.07700
C1099       C  0.16847569  0.77077136  0.00580611     0.05800
C1100       C  0.16404833  0.76441484  0.04490111    -0.08800
C1101       C  0.14758722  0.74629565  0.05398156     0.00800
C1102       C  0.13485993  0.73448553  0.02357025     0.00700
C1103       C  0.13869615  0.74145187  0.98469188    -0.12300
C1104       C  0.15557645  0.75931294  0.97551194     0.01200
C1105       C  0.14455245  0.73999018  0.09452987     0.40500
C1106       C  0.15993411  0.76511699  0.93471809     0.37100
C1107       C  0.19996062  0.76876485  0.97002059     0.36800
C1108       C  0.21348351  0.84083100  0.02361691     0.37600
N1109       N  0.14229000  0.73492202  0.12698810    -0.43200
N1110       N  0.16356867  0.76967013  0.90200005    -0.43700
N1111       N  0.21609646  0.85496688  0.03740060    -0.41000
N1112       N  0.19759599  0.75396329  0.96167329    -0.42500
H1113       H  0.23304467  0.80264051  0.96445595     0.13700
H1114       H  0.17985559  0.80720696  0.02382463     0.10200
H1115       H  0.17406851  0.77321966  0.06814078     0.11300
H1116       H  0.12916970  0.73240903  0.96107583     0.17100
C1117       C  0.37142901  0.08192686  0.77659838    -0.01100
C1118       C  0.38815816  0.09711262  0.75783464     0.07500
C1119       C  0.40286661  0.11226908  0.78030423    -0.07100
C1120       C  0.40114543  0.11244761  0.82139019     0.04900
C1121       C  0.38437680  0.09712204  0.84048367    -0.14300
C1122       C  0.36966923  0.08201274  0.81756128    -0.07700
C1123       C  0.38988281  0.09796398  0.71450085     0.05800
C1124       C  0.38462881  0.10921506  0.69421421    -0.08800
C1125       C  0.38421178  0.10907546  0.65305133     0.00800
C1126       C  0.38964981  0.09788045  0.63165512     0.00700
C1127       C  0.39560325  0.08717211  0.65208431    -0.12300
C1128       C  0.39542181  0.08686614  0.69331585     0.01200
C1129       C  0.37811056  0.12049857  0.63361888     0.40500
C1130       C  0.40020315  0.07452049  0.71325578     0.37100
C1131       C  0.35570817  0.06635631  0.75424041     0.36800
C1132       C  0.41643344  0.12890735  0.84269769     0.37600
N1133       N  0.37313106  0.12959809  0.61815356    -0.43200
N1134       N  0.40386358  0.06448276  0.72918560    -0.43700
N1135       N  0.42870120  0.14217752  0.85957703    -0.41000
N1136       N  0.34312724  0.05392649  0.73622029    -0.42500
H1137       H  0.35668513  0.07019503  0.83161358     0.13700
H1138       H  0.41558206  0.12411337  0.76558877     0.10200
H1139       H  0.38027234  0.11765943  0.71067193     0.11300
H1140       H  0.39952548  0.07832874  0.63583999     0.17100
C1141       C  0.34880146  0.19151574  0.01222307    -0.01100
C1142       C  0.34408390  0.17977899  0.97836635     0.07500
C1143       C  0.33879525  0.18506030  0.94380190    -0.07100
C1144       C  0.34023087  0.20277922  0.94123781     0.04900
C1145       C  0.34683091  0.21545773  0.97399641    -0.14300
C1146       C  0.34993048  0.20909819  0.00989440    -0.07700
C1147       C  0.34742435  0.16372471  0.97646046     0.05800
C1148       C  0.33667585  0.14736593  0.00062008    -0.08800
C1149       C  0.34034806  0.13250244  0.00014638     0.00800
C1150       C  0.35493767  0.13389068  0.97476672     0.00700
C1151       C  0.36539342  0.15023019  0.95038910    -0.12300
C1152       C  0.36195768  0.16507223  0.95131076     0.01200
C1153       C  0.32931396  0.11642336  0.02669891     0.40500
C1154       C  0.37425009  0.18196482  0.92730766     0.37100
C1155       C  0.35426856  0.18674191  0.04861572     0.36800
C1156       C  0.33555847  0.20783718  0.90421999     0.37600
N1157       N  0.32043763  0.10360559  0.04816281    -0.43200
N1158       N  0.38419229  0.19545885  0.90809428    -0.43700
N1159       N  0.33178687  0.21183320  0.87450822    -0.41000
N1160       N  0.35865921  0.18296552  0.07783015    -0.42500
H1161       H  0.35487104  0.21858387  0.03541959     0.13700
H1162       H  0.33474723  0.17585201  0.91793285     0.10200
H1163       H  0.32556970  0.14633910  0.02020319     0.11300
H1164       H  0.37670140  0.15171747  0.93077065     0.17100
C1165       C  0.31744163  0.99971858  0.98376328    -0.01100
C1166       C  0.32861147  0.99146276  0.97896263     0.07500
C1167       C  0.34878718  0.00354409  0.97367344    -0.07100
C1168       C  0.35807375  0.02363481  0.97368649     0.04900
C1169       C  0.34699769  0.03214099  0.97879870    -0.14300
C1170       C  0.32666843  0.01990832  0.98374981    -0.07700
C1171       C  0.31993258  0.97030831  0.98068515     0.05800
C1172       C  0.30721904  0.95824617  0.95093278    -0.08800
C1173       C  0.30016587  0.93842939  0.95020019     0.00800
C1174       C  0.30612269  0.93054366  0.97945074     0.00700
C1175       C  0.31867115  0.94269049  0.00932573    -0.12300
C1176       C  0.32542139  0.96231474  0.01036605     0.01200
C1177       C  0.28747415  0.92677884  0.91842473     0.40500
C1178       C  0.33774566  0.97393692  0.04261639     0.37100
C1179       C  0.29659600  0.98778172  0.98941568     0.36800
C1180       C  0.37897190  0.03489167  0.96818991     0.37600
N1181       N  0.27729879  0.91747601  0.89292134    -0.43200
N1182       N  0.34757997  0.98325624  0.06848077    -0.43700
N1183       N  0.39570919  0.04379783  0.96374516    -0.41000
N1184       N  0.27987643  0.97819156  0.99383000    -0.42500
H1185       H  0.31791017  0.02608518  0.98749491     0.13700
H1186       H  0.35736631  0.99716409  0.96972531     0.10200
H1187       H  0.30313149  0.96441323  0.92783986     0.11300
H1188       H  0.32304953  0.93678624  0.03243168     0.17100
C1189       C  0.46124364  0.29807315  0.17386365    -0.01100
C1190       C  0.46427681  0.29718440  0.13337392     0.07500
C1191       C  0.48147930  0.29889211  0.12086258    -0.07100
C1192       C  0.49590720  0.30196443  0.14777960     0.04900
C1193       C  0.49391874  0.30448747  0.18907299    -0.14300
C1194       C  0.47547382  0.30103387  0.20090986    -0.07700
C1195       C  0.44957688  0.29441397  0.10377175     0.05800
C1196       C  0.45435598  0.30934884  0.07705226    -0.08800
C1197       C  0.44057653  0.30776599  0.05017609     0.00800
C1198       C  0.42142990  0.29109359  0.05031759     0.00700
C1199       C  0.41682529  0.27606761  0.07674762    -0.12300
C1200       C  0.43073938  0.27742055  0.10269259     0.01200
C1201       C  0.44643047  0.32358114  0.02334712     0.40500
C1202       C  0.42551231  0.26091056  0.12699214     0.37100
C1203       C  0.44351441  0.29606254  0.18828661     0.36800
C1204       C  0.51244563  0.30262433  0.13053387     0.37600
N1205       N  0.45115734  0.33622148  0.00170085    -0.43200
N1206       N  0.42127426  0.24761123  0.14627052    -0.43700
N1207       N  0.52499085  0.30289681  0.11370914    -0.41000
N1208       N  0.42914278  0.29431454  0.19902639    -0.42500
H1209       H  0.47137312  0.29998318  0.23150825     0.13700
H1210       H  0.48358913  0.29765435  0.08960166     0.10200
H1211       H  0.46886208  0.32238294  0.07750687     0.11300
H1212       H  0.40240441  0.26291101  0.07643871     0.17100
C1213       C  0.44881093  0.29806065  0.35531886    -0.01100
C1214       C  0.46827696  0.30518090  0.36528673     0.07500
C1215       C  0.47390538  0.30931125  0.40486154    -0.07100
C1216       C  0.46035635  0.30628965  0.43448020     0.04900
C1217       C  0.44063343  0.29871282  0.42455099    -0.14300
C1218       C  0.43526272  0.29482421  0.38468767    -0.07700
C1219       C  0.48270975  0.30839943  0.33425110     0.05800
C1220       C  0.48873541  0.32344247  0.30745278    -0.08800
C1221       C  0.49897329  0.32467344  0.27302733     0.00800
C1222       C  0.50263509  0.30988796  0.26359620     0.00700
C1223       C  0.49989256  0.29730808  0.29504108    -0.12300
C1224       C  0.48921349  0.29582796  0.32897245     0.01200
C1225       C  0.50399640  0.34061654  0.24724780     0.40500
C1226       C  0.48405440  0.28050616  0.35670492     0.37100
C1227       C  0.44223321  0.29357989  0.31509078     0.36800
C1228       C  0.46723332  0.31111215  0.47450558     0.37600
N1229       N  0.50773080  0.35383963  0.22822053    -0.43200
N1230       N  0.47979670  0.26813135  0.37876704    -0.43700
N1231       N  0.47292403  0.31511970  0.50647656    -0.41000
N1232       N  0.43683003  0.28995570  0.28292857    -0.42500
H1233       H  0.42030700  0.28905187  0.37621256     0.13700
H1234       H  0.48893245  0.31496537  0.41256641     0.10200
H1235       H  0.48455119  0.33377055  0.31256536     0.11300
H1236       H  0.50543794  0.28801386  0.29321974     0.17100
C1237       C  0.59104326  0.39129247  0.26499875    -0.01100
C1238       C  0.58702059  0.38011255  0.23060117     0.07500
C1239       C  0.60074345  0.38733872  0.20002972    -0.07100
C1240       C  0.61764059  0.40600350  0.20187611     0.04900
C1241       C  0.62080233  0.41851429  0.23450348    -0.14300
C1242       C  0.60796084  0.40984990  0.26715477    -0.07700
C1243       C  0.56820396  0.36129492  0.22524318     0.05800
C1244       C  0.55539649  0.35963631  0.19597991    -0.08800
C1245       C  0.53673057  0.34277566  0.19168309     0.00800
C1246       C  0.53027769  0.32685987  0.21799437     0.00700
C1247       C  0.54373713  0.32898183  0.24709934    -0.12300
C1248       C  0.56254170  0.34543443  0.24978382     0.01200
C1249       C  0.52481641  0.34363776  0.16176085     0.40500
C1250       C  0.57604877  0.34539873  0.27690551     0.37100
C1251       C  0.57774331  0.38429653  0.29821482     0.36800
C1252       C  0.63040313  0.41195689  0.16797506     0.37600
N1253       N  0.51583680  0.34519782  0.13760601    -0.43200
N1254       N  0.58696218  0.34529951  0.29825284    -0.43700
N1255       N  0.63980809  0.41575679  0.13967512    -0.41000
N1256       N  0.56713289  0.37863441  0.32488596    -0.42500
H1257       H  0.61076540  0.41743713  0.29486955     0.13700
H1258       H  0.59796226  0.37847241  0.17399170     0.10200
H1259       H  0.55987906  0.37193753  0.17693251     0.11300
H1260       H  0.53964000  0.31720882  0.26736283     0.17100
C1261       C  0.65727466  0.47365361  0.32945134    -0.01100
C1262       C  0.64161566  0.47569925  0.33858461     0.07500
C1263       C  0.62473574  0.46555911  0.31596937    -0.07100
C1264       C  0.62320339  0.45367404  0.28447244     0.04900
C1265       C  0.63862049  0.45071263  0.27550879    -0.14300
C1266       C  0.65557617  0.46113711  0.29915872    -0.07700
C1267       C  0.64307839  0.48945699  0.36952660     0.05800
C1268       C  0.64045561  0.50436773  0.35881504    -0.08800
C1269       C  0.64325497  0.51855459  0.38611230     0.00800
C1270       C  0.64929260  0.51827138  0.42499174     0.00700
C1271       C  0.65052856  0.50253045  0.43629838    -0.12300
C1272       C  0.64725890  0.48811918  0.40918932     0.01200
C1273       C  0.63968042  0.53306760  0.37325435     0.40500
C1274       C  0.64818830  0.47204031  0.42279948     0.37100
C1275       C  0.67593046  0.48551825  0.34846681     0.36800
C1276       C  0.60551101  0.44520891  0.26189058     0.37600
N1277       N  0.63664008  0.54457707  0.36295758    -0.43200
N1278       N  0.64894362  0.45914140  0.43358272    -0.43700
N1279       N  0.59091844  0.43864970  0.24532196    -0.41000
N1280       N  0.69089978  0.49508804  0.36354859    -0.42500
H1281       H  0.66848512  0.46105032  0.29238785     0.13700
H1282       H  0.61276905  0.46739155  0.32234494     0.10200
H1283       H  0.63660250  0.50516796  0.32870007     0.11300
H1284       H  0.65456901  0.50168137  0.46620271     0.17100
C1285       C  0.64623422  0.51264225  0.12620099    -0.01100
C1286       C  0.64745759  0.49645961  0.11840063     0.07500
C1287       C  0.65236441  0.49365485  0.08040957    -0.07100
C1288       C  0.65650438  0.50691674  0.05034324     0.04900
C1289       C  0.65545980  0.52326804  0.05797867    -0.14300
C1290       C  0.65030697  0.52593859  0.09606423    -0.07700
C1291       C  0.64440612  0.48249883  0.14946223     0.05800
C1292       C  0.62809541  0.46363343  0.14747896    -0.08800
C1293       C  0.62512315  0.44940673  0.17445643     0.00800
C1294       C  0.63955097  0.45374876  0.20373717     0.00700
C1295       C  0.65553019  0.47334131  0.20584647    -0.12300
C1296       C  0.65807953  0.48743209  0.17930791     0.01200
C1297       C  0.60641047  0.43148379  0.17138173     0.40500
C1298       C  0.67534279  0.50668429  0.18231181     0.37100
C1299       C  0.64084143  0.51583135  0.16481399     0.36800
C1300       C  0.66318158  0.50409419  0.01287102     0.37600
N1301       N  0.59109126  0.41754785  0.16772720    -0.43200
N1302       N  0.68916684  0.52211101  0.18477645    -0.43700
N1303       N  0.66870494  0.50190736  0.98298306    -0.41000
N1304       N  0.63654881  0.51835190  0.19581771    -0.42500
H1305       H  0.64954283  0.53847046  0.10232876     0.13700
H1306       H  0.65355579  0.48133340  0.07458580     0.10200
H1307       H  0.61736913  0.46009523  0.12477137     0.11300
H1308       H  0.66671754  0.47758572  0.22775800     0.17100
C1309       C  0.72508048  0.45074184  0.25798255    -0.01100
C1310       C  0.70744175  0.43359007  0.24863366     0.07500
C1311       C  0.70751906  0.41688562  0.24084459    -0.07100
C1312       C  0.72480312  0.41691330  0.24256496     0.04900
C1313       C  0.74280942  0.43406493  0.25415613    -0.14300
C1314       C  0.74225883  0.45091530  0.25995393    -0.07700
C1315       C  0.68925635  0.43351493  0.24366876     0.05800
C1316       C  0.68799628  0.44328502  0.21152776    -0.08800
C1317       C  0.67205617  0.44517176  0.20653327     0.00800
C1318       C  0.65685121  0.43784281  0.23583222     0.00700
C1319       C  0.65796726  0.42696777  0.26689980    -0.12300
C1320       C  0.67376099  0.42475420  0.27089590     0.01200
C1321       C  0.67199257  0.45366390  0.16950811     0.40500
C1322       C  0.67395844  0.41380615  0.30374419     0.37100
C1323       C  0.72588396  0.46843278  0.26625286     0.36800
C1324       C  0.72296554  0.39924782  0.22969613     0.37600
N1325       N  0.67240538  0.46034985  0.13930254    -0.43200
N1326       N  0.67403460  0.40492260  0.32996313    -0.43700
N1327       N  0.72074461  0.38474892  0.21919752    -0.41000
N1328       N  0.72645923  0.48256279  0.27289895    -0.42500
H1329       H  0.75545341  0.46448979  0.26751799     0.13700
H1330       H  0.69399678  0.40382370  0.23209470     0.10200
H1331       H  0.69968555  0.44943864  0.18978469     0.11300
H1332       H  0.64654927  0.42056843  0.28913257     0.17100
C1333       C  0.79867211  0.48475047  0.20165358    -0.01100
C1334       C  0.79683853  0.47846591  0.16240396     0.07500
C1335       C  0.78383860  0.45892616  0.15374645    -0.07100
C1336       C  0.77274440  0.44551097  0.18346593     0.04900
C1337       C  0.77556761  0.45121461  0.22409088    -0.14300
C1338       C  0.78821045  0.47136993  0.23164840    -0.07700
C1339       C  0.80747730  0.49228438  0.12969071     0.05800
C1340       C  0.82267617  0.49221743  0.11008292    -0.08800
C1341       C  0.83360469  0.50577311  0.08037706     0.00800
C1342       C  0.82947998  0.51987455  0.07041344     0.00700
C1343       C  0.81384353  0.51942401  0.08935751    -0.12300
C1344       C  0.80271474  0.50565256  0.11823828     0.01200
C1345       C  0.84926209  0.50522710  0.06164193     0.40500
C1346       C  0.78620531  0.50524556  0.13522485     0.37100
C1347       C  0.81085765  0.50502037  0.21183032     0.36800
C1348       C  0.75899427  0.42603460  0.17023328     0.37600
N1349       N  0.86175737  0.50472452  0.04652660    -0.43200
N1350       N  0.77289735  0.50480928  0.14871644    -0.43700
N1351       N  0.74859519  0.41068980  0.15747454    -0.41000
N1352       N  0.82041626  0.52128204  0.21987210    -0.42500
H1353       H  0.78964836  0.47716865  0.26101960     0.13700
H1354       H  0.78194325  0.45421170  0.12322698     0.10200
H1355       H  0.82618678  0.48174617  0.11846456     0.11300
H1356       H  0.81016059  0.52981221  0.08136331     0.17100
C1357       C  0.77062496  0.45918323  0.36419157    -0.01100
C1358       C  0.79090820  0.46910042  0.36862797     0.07500
C1359       C  0.80169858  0.46562254  0.34174466    -0.07100
C1360       C  0.79304942  0.45421009  0.30811994     0.04900
C1361       C  0.77286792  0.44624480  0.29990731    -0.14300
C1362       C  0.76178515  0.44765748  0.33073708    -0.07700
C1363       C  0.80159731  0.48505518  0.39761780     0.05800
C1364       C  0.81070172  0.48270707  0.42994125    -0.08800
C1365       C  0.82222790  0.49817942  0.45578319     0.00800
C1366       C  0.82512591  0.51653601  0.44883585     0.00700
C1367       C  0.81607289  0.51879187  0.41618043    -0.12300
C1368       C  0.80427977  0.50325812  0.39093233     0.01200
C1369       C  0.83141809  0.49496910  0.48829109     0.40500
C1370       C  0.79530651  0.50637536  0.35781924     0.37100
C1371       C  0.75867104  0.46106347  0.39316819     0.36800
C1372       C  0.80620877  0.45300062  0.28137939     0.37600
N1373       N  0.83879019  0.49241340  0.51437121    -0.43200
N1374       N  0.78798051  0.50870463  0.33132779    -0.43700
N1375       N  0.81754043  0.45273971  0.26104951    -0.41000
N1376       N  0.74908140  0.46252274  0.41645840    -0.42500
H1377       H  0.74613973  0.44033719  0.32862462     0.13700
H1378       H  0.81731768  0.47291471  0.34581195     0.10200
H1379       H  0.80892080  0.46880499  0.43475662     0.11300
H1380       H  0.81800122  0.53270364  0.41057913     0.17100
C1381       C  0.78521637  0.29700865  0.34333894    -0.01100
C1382       C  0.80453369  0.31273580  0.34726398     0.07500
C1383       C  0.81096248  0.32939867  0.32501250    -0.07100
C1384       C  0.79891820  0.33004325  0.29665501     0.04900
C1385       C  0.77981149  0.31335438  0.28921058    -0.14300
C1386       C  0.77301163  0.29752279  0.31538309    -0.07700
C1387       C  0.81859222  0.31120115  0.37184950     0.05800
C1388       C  0.82739754  0.30200998  0.35572818    -0.08800
C1389       C  0.83915323  0.29824827  0.37870058     0.00800
C1390       C  0.84266921  0.30414223  0.41881018     0.00700
C1391       C  0.83431823  0.31402775  0.43435568    -0.12300
C1392       C  0.82215945  0.31732059  0.41142405     0.01200
C1393       C  0.84669556  0.28767202  0.36036518     0.40500
C1394       C  0.81261464  0.32600988  0.42957927     0.37100
C1395       C  0.77779591  0.27981945  0.36696428     0.36800
C1396       C  0.80757097  0.34728897  0.27267974     0.37600
N1397       N  0.85252627  0.27903235  0.34553740    -0.43200
N1398       N  0.80477976  0.33279716  0.44410958    -0.43700
N1399       N  0.81464424  0.36109162  0.25346327    -0.41000
N1400       N  0.77193040  0.26606230  0.38589409    -0.42500
H1401       H  0.75829484  0.28504079  0.31402649     0.13700
H1402       H  0.82582850  0.34163420  0.32844550     0.10200
H1403       H  0.82449203  0.29714147  0.32529768     0.11300
H1404       H  0.83655659  0.31845734  0.46504102     0.17100
C1405       C  0.81055088  0.31138026  0.07762072    -0.01100
C1406       C  0.80239667  0.29948584  0.11109506     0.07500
C1407       C  0.80396286  0.28341089  0.11490589    -0.07100
C1408       C  0.81426000  0.27956160  0.08725457     0.04900
C1409       C  0.82261178  0.29149100  0.05352694    -0.14300
C1410       C  0.82027975  0.30715083  0.04888895    -0.07700
C1411       C  0.79439282  0.30465152  0.14516673     0.05800
C1412       C  0.77673213  0.30360787  0.14234488    -0.08800
C1413       C  0.76810716  0.30651043  0.17565783     0.00800
C1414       C  0.77739310  0.31104917  0.21347309     0.00700
C1415       C  0.79505803  0.31148359  0.21489193    -0.12300
C1416       C  0.80365647  0.30897272  0.18176499     0.01200
C1417       C  0.74923871  0.30381865  0.17007115     0.40500
C1418       C  0.82203177  0.31047215  0.18650956     0.37100
C1419       C  0.81007314  0.32857175  0.07337141     0.36800
C1420       C  0.81628361  0.26348866  0.09519350     0.37600
N1421       N  0.73421995  0.30180983  0.16540932    -0.43200
N1422       N  0.83670032  0.31163697  0.19038302    -0.43700
N1423       N  0.81803712  0.25073234  0.10197538    -0.41000
N1424       N  0.80976086  0.34241012  0.07024728    -0.42500
H1425       H  0.82661132  0.31650432  0.02342103     0.13700
H1426       H  0.79781084  0.27428699  0.14077698     0.10200
H1427       H  0.76930326  0.29984448  0.11423858     0.11300
H1428       H  0.80240243  0.31284393  0.24194996     0.17100
C1429       C  0.78007116  0.40125223  0.23696402    -0.01100
C1430       C  0.76656467  0.38450241  0.25820380     0.07500
C1431       C  0.75300353  0.38539651  0.28241256    -0.07100
C1432       C  0.75228270  0.40211283  0.28431287     0.04900
C1433       C  0.76368640  0.41785951  0.25789103    -0.14300
C1434       C  0.77783790  0.41694376  0.23517400    -0.07700
C1435       C  0.76668269  0.36626005  0.25639471     0.05800
C1436       C  0.76484549  0.35628697  0.29120423    -0.08800
C1437       C  0.76410944  0.33878494  0.29071744     0.00800
C1438       C  0.76654602  0.33108095  0.25455272     0.00700
C1439       C  0.76954339  0.34212976  0.22023947    -0.12300
C1440       C  0.76813262  0.35836610  0.22044811     0.01200
C1441       C  0.75985185  0.32882947  0.32801880     0.40500
C1442       C  0.76717872  0.36594269  0.18280103     0.37100
C1443       C  0.79740406  0.40351443  0.21942610     0.36800
C1444       C  0.73903011  0.40208765  0.31288167     0.37600
N1445       N  0.75632628  0.32103082  0.35810482    -0.43200
N1446       N  0.76636109  0.37192576  0.15261154    -0.43700
N1447       N  0.72814501  0.40156835  0.33576982    -0.41000
N1448       N  0.81139178  0.40547599  0.20564015    -0.42500
H1449       H  0.78830682  0.42905479  0.21737491     0.13700
H1450       H  0.74295326  0.37300074  0.30034994     0.10200
H1451       H  0.76352859  0.36198092  0.31916940     0.11300
H1452       H  0.77291533  0.33844039  0.19225464     0.17100
C1453       C  0.72737064  0.25755084  0.24021819    -0.01100
C1454       C  0.70993035  0.25542645  0.25411124     0.07500
C1455       C  0.71110926  0.27217842  0.26796398    -0.07100
C1456       C  0.72820774  0.29068312  0.26437888     0.04900
C1457       C  0.74635606  0.29280239  0.25429259    -0.14300
C1458       C  0.74513977  0.27542215  0.24342739    -0.07700
C1459       C  0.69048046  0.23619117  0.25411368     0.05800
C1460       C  0.68945656  0.21908864  0.26369243    -0.08800
C1461       C  0.67198858  0.20085051  0.26144007     0.00800
C1462       C  0.65371177  0.19907980  0.25515555     0.00700
C1463       C  0.65496354  0.21678822  0.24966148    -0.12300
C1464       C  0.67270871  0.23454201  0.24536597     0.01200
C1465       C  0.67383628  0.18441817  0.26487287     0.40500
C1466       C  0.67218086  0.25050251  0.22942908     0.37100
C1467       C  0.72754073  0.24213711  0.21988966     0.36800
C1468       C  0.72520807  0.30636166  0.26805133     0.37600
N1469       N  0.67620868  0.17179720  0.26725940    -0.43200
N1470       N  0.67170208  0.26319107  0.21629993    -0.43700
N1471       N  0.72172086  0.31824455  0.27036441    -0.41000
N1472       N  0.72771183  0.22989067  0.20322003    -0.42500
H1473       H  0.75826492  0.27589090  0.23531722     0.13700
H1474       H  0.69820019  0.27104211  0.28014582     0.10200
H1475       H  0.70266493  0.21979441  0.27229431     0.11300
H1476       H  0.64190072  0.21739365  0.24757525     0.17100
C1477       C  0.64429613  0.16208406  0.15635043    -0.01100
C1478       C  0.62744266  0.14357173  0.15088014     0.07500
C1479       C  0.61179887  0.13717159  0.17695699    -0.07100
C1480       C  0.61313445  0.14826982  0.20986918     0.04900
C1481       C  0.63089878  0.16637801  0.21819035    -0.14300
C1482       C  0.64572645  0.17336068  0.18890057    -0.07700
C1483       C  0.62667139  0.13002675  0.12050534     0.05800
C1484       C  0.62717703  0.11406592  0.13288399    -0.08800
C1485       C  0.62933130  0.10243018  0.10562246     0.00800
C1486       C  0.63119572  0.10683842  0.06485910     0.00700
C1487       C  0.62905963  0.12191334  0.05249550    -0.12300
C1488       C  0.62677110  0.13341733  0.07985735     0.01200
C1489       C  0.62999657  0.08641409  0.12068734     0.40500
C1490       C  0.62492007  0.14885079  0.06564339     0.37100
C1491       C  0.66072747  0.16961207  0.12966395     0.36800
C1492       C  0.59644794  0.13938645  0.23602321     0.37600
N1493       N  0.63045998  0.07356879  0.13295241    -0.43200
N1494       N  0.62341655  0.16121527  0.05427107    -0.43700
N1495       N  0.58270279  0.13142702  0.25592253    -0.41000
N1496       N  0.67386409  0.17567271  0.10820785    -0.42500
H1497       H  0.65885434  0.18756536  0.19096701     0.13700
H1498       H  0.59870187  0.12297639  0.17245661     0.10200
H1499       H  0.62664064  0.11113341  0.16415343     0.11300
H1500       H  0.62997655  0.12529906  0.02140791     0.17100
C1501       C  0.66104881  0.15869589  0.42412825    -0.01100
C1502       C  0.64238741  0.14887775  0.40682782     0.07500
C1503       C  0.62848502  0.12987611  0.41886351    -0.07100
C1504       C  0.63340022  0.12004349  0.44479976     0.04900
C1505       C  0.65245128  0.12941613  0.45998622    -0.14300
C1506       C  0.66579828  0.14900948  0.45095826    -0.07700
C1507       C  0.63854894  0.15605078  0.37014574     0.05800
C1508       C  0.63513553  0.14509108  0.33609305    -0.08800
C1509       C  0.63328270  0.15128157  0.29917175     0.00800
C1510       C  0.63406069  0.16909694  0.29537744     0.00700
C1511       C  0.63779374  0.18011566  0.33052832    -0.12300
C1512       C  0.63961687  0.17364188  0.36740114     0.01200
C1513       C  0.63312863  0.13954653  0.26715969     0.40500
C1514       C  0.64199490  0.18502143  0.40201275     0.37100
C1515       C  0.67614671  0.17801235  0.41214041     0.36800
C1516       C  0.61880793  0.10017443  0.45436687     0.37600
N1517       N  0.63338119  0.12962545  0.24307665    -0.43200
N1518       N  0.64387195  0.19416689  0.42971834    -0.43700
N1519       N  0.60717058  0.08423318  0.46203407    -0.41000
N1520       N  0.68821205  0.19351526  0.40258998    -0.42500
H1521       H  0.68047222  0.15636145  0.46255706     0.13700
H1522       H  0.61412174  0.12224150  0.40570830     0.10200
H1523       H  0.63495705  0.13180842  0.33818924     0.11300
H1524       H  0.63882945  0.19382538  0.32916298     0.17100
C1525       C  0.56117695  0.19731468  0.26496903    -0.01100
C1526       C  0.56708698  0.18843149  0.23786273     0.07500
C1527       C  0.55459306  0.17747335  0.20723568    -0.07100
C1528       C  0.53619732  0.17471584  0.20334923     0.04900
C1529       C  0.52990206  0.18395386  0.23026701    -0.14300
C1530       C  0.54286025  0.19479688  0.26139166    -0.07700
C1531       C  0.58473373  0.18772661  0.24392341     0.05800
C1532       C  0.58573557  0.17891550  0.27802176    -0.08800
C1533       C  0.60047821  0.17529528  0.28354439     0.00800
C1534       C  0.61572033  0.18144331  0.25456756     0.00700
C1535       C  0.61365260  0.18942226  0.21932920    -0.12300
C1536       C  0.59885085  0.19295536  0.21427401     0.01200
C1537       C  0.59719571  0.16310090  0.31698441     0.40500
C1538       C  0.59861626  0.20220272  0.17844646     0.37100
C1539       C  0.57365552  0.20903962  0.29691577     0.36800
C1540       C  0.52409392  0.16022548  0.17438926     0.37600
N1541       N  0.59371979  0.15303229  0.34373623    -0.43200
N1542       N  0.59845230  0.20964827  0.14977081    -0.43700
N1543       N  0.51487541  0.14833176  0.15125842    -0.41000
N1544       N  0.58369075  0.21845887  0.32246828    -0.42500
H1545       H  0.53850939  0.20134744  0.28354041     0.13700
H1546       H  0.55879560  0.16984527  0.18753422     0.10200
H1547       H  0.57410483  0.17376499  0.29972269     0.11300
H1548       H  0.62420467  0.19352468  0.19572237     0.17100
C1549       C  0.49425772  0.25490626  0.23430140    -0.01100
C1550       C  0.51018208  0.25412264  0.21990956     0.07500
C1551       C  0.52555028  0.27080314  0.20180480    -0.07100
C1552       C  0.52668729  0.28845096  0.20252174     0.04900
C1553       C  0.51063457  0.28934516  0.21736935    -0.14300
C1554       C  0.49381662  0.27151149  0.22860620    -0.07700
C1555       C  0.51072455  0.23605468  0.22177675     0.05800
C1556       C  0.49344273  0.21797939  0.21649369    -0.08800
C1557       C  0.49254834  0.20071741  0.22239234     0.00800
C1558       C  0.50996899  0.20066863  0.22696595     0.00700
C1559       C  0.52766125  0.21903878  0.22728000    -0.12300
C1560       C  0.52802040  0.23631771  0.22811182     0.01200
C1561       C  0.47315009  0.18355527  0.22582954     0.40500
C1562       C  0.54633400  0.25384561  0.23777130     0.37100
C1563       C  0.47889238  0.23977016  0.25828181     0.36800
C1564       C  0.54443838  0.30456513  0.18587406     0.37600
N1565       N  0.45741890  0.17020038  0.22925004    -0.43200
N1566       N  0.56106725  0.26776770  0.24570038    -0.43700
N1567       N  0.55884712  0.31715118  0.17240125    -0.41000
N1568       N  0.46662584  0.22780959  0.27783512    -0.42500
H1569       H  0.48085962  0.27115829  0.23778024     0.13700
H1570       H  0.53709022  0.27023156  0.18720072     0.10200
H1571       H  0.48014004  0.21714651  0.20906138     0.11300
H1572       H  0.54154668  0.22045045  0.22813751     0.17100
C1573       C  0.48302517  0.17195753  0.33324337    -0.01100
C1574       C  0.47794014  0.15310743  0.34181319     0.07500
C1575       C  0.48641096  0.14503237  0.32002442    -0.07100
C1576       C  0.49793009  0.15445464  0.28674732     0.04900
C1577       C  0.50044926  0.17217483  0.27344929    -0.14300
C1578       C  0.49472816  0.18155301  0.30042988    -0.07700
C1579       C  0.46193342  0.14072271  0.36963753     0.05800
C1580       C  0.44288972  0.13407980  0.35804524    -0.08800
C1581       C  0.42701819  0.12216042  0.38263128     0.00800
C1582       C  0.43016748  0.11707994  0.42032770     0.00700
C1583       C  0.44931742  0.12351311  0.43152783    -0.12300
C1584       C  0.46513072  0.13498748  0.40621502     0.01200
C1585       C  0.40781837  0.11584509  0.36847235     0.40500
C1586       C  0.48446646  0.14081451  0.41836844     0.37100
C1587       C  0.47578904  0.18149137  0.35688710     0.36800
C1588       C  0.50525676  0.14436857  0.26555819     0.37600
N1589       N  0.39246549  0.11073003  0.35685437    -0.43200
N1590       N  0.49995644  0.14535890  0.42795042    -0.43700
N1591       N  0.51080823  0.13567382  0.24988316    -0.41000
N1592       N  0.47000808  0.18918805  0.37565601    -0.42500
H1593       H  0.49846964  0.19615998  0.29571916     0.13700
H1594       H  0.48302022  0.13072374  0.32766205     0.10200
H1595       H  0.44044198  0.13821341  0.32945762     0.11300
H1596       H  0.45195774  0.11959311  0.46013098     0.17100
C1597       C  0.46493180  0.13935275  0.17498180    -0.01100
C1598       C  0.46816239  0.14694339  0.13677988     0.07500
C1599       C  0.48553603  0.16441502  0.12810718    -0.07100
C1600       C  0.49932925  0.17488905  0.15749210     0.04900
C1601       C  0.49578516  0.16803096  0.19729116    -0.14300
C1602       C  0.47835403  0.14985911  0.20461525    -0.07700
C1603       C  0.45255675  0.13785767  0.10698828     0.05800
C1604       C  0.43540067  0.13736815  0.11460818    -0.08800
C1605       C  0.41992686  0.12866793  0.08816433     0.00800
C1606       C  0.42155266  0.12032238  0.05289872     0.00700
C1607       C  0.43892829  0.12108779  0.04507171    -0.12300
C1608       C  0.45436396  0.12971009  0.07187675     0.01200
C1609       C  0.40288248  0.12910055  0.09772061     0.40500
C1610       C  0.47166722  0.12960007  0.06335355     0.37100
C1611       C  0.44748812  0.12097750  0.18489770     0.36800
C1612       C  0.51714716  0.19249931  0.14559195     0.37600
N1613       N  0.38926953  0.12949888  0.10553253    -0.43200
N1614       N  0.48554854  0.12951552  0.05663864    -0.43700
N1615       N  0.53148327  0.20643651  0.13575432    -0.41000
N1616       N  0.43354442  0.10626334  0.19285088    -0.42500
H1617       H  0.47402209  0.14391752  0.23374212     0.13700
H1618       H  0.48808612  0.17017087  0.09843209     0.10200
H1619       H  0.43413605  0.14387422  0.14148431     0.11300
H1620       H  0.44037853  0.11471637  0.01821191     0.17100
C1621       C  0.50568087  0.80521428  0.88135635    -0.01100
C1622       C  0.48761119  0.80359386  0.87965983     0.07500
C1623       C  0.48261024  0.81214506  0.90935933    -0.07100
C1624       C  0.49567325  0.82285622  0.93983336     0.04900
C1625       C  0.51412937  0.82511038  0.94068655    -0.14300
C1626       C  0.51874185  0.81596337  0.91149492    -0.07700
C1627       C  0.47456172  0.79434949  0.84535130     0.05800
C1628       C  0.45702508  0.77646091  0.84960447    -0.08800
C1629       C  0.44492583  0.76692536  0.81709499     0.00800
C1630       C  0.44984460  0.77567752  0.77876528     0.00700
C1631       C  0.46844725  0.79322971  0.77539598    -0.12300
C1632       C  0.48017877  0.80276905  0.80788963     0.01200
C1633       C  0.42774347  0.74798845  0.82457119     0.40500
C1634       C  0.49815208  0.82129822  0.80186674     0.37100
C1635       C  0.51123113  0.79616434  0.85210488     0.36800
C1636       C  0.49012424  0.83213932  0.96844332     0.37600
N1637       N  0.41403902  0.73291893  0.83148457    -0.43200
N1638       N  0.51251499  0.83613139  0.79703025    -0.43700
N1639       N  0.48561725  0.83958734  0.99124788    -0.41000
N1640       N  0.51567010  0.78897088  0.82853258    -0.42500
H1641       H  0.53268363  0.81725320  0.91208915     0.13700
H1642       H  0.46874191  0.81097774  0.90797003     0.10200
H1643       H  0.45298325  0.76968645  0.87841774     0.11300
H1644       H  0.47475256  0.79979123  0.74737542     0.17100
C1645       C  0.46546017  0.78238085  0.64114398    -0.01100
C1646       C  0.47132014  0.80184804  0.64009002     0.07500
C1647       C  0.46357526  0.80872049  0.66746786    -0.07100
C1648       C  0.45137401  0.79685742  0.69805743     0.04900
C1649       C  0.44765010  0.77783770  0.70321731    -0.14300
C1650       C  0.45377690  0.77059998  0.67215496    -0.07700
C1651       C  0.48770684  0.81569102  0.61450899     0.05800
C1652       C  0.48436972  0.81796399  0.57512917    -0.08800
C1653       C  0.50002190  0.82944653  0.54942696     0.00800
C1654       C  0.51941400  0.83902339  0.56347321     0.00700
C1655       C  0.52251376  0.83697352  0.60330414    -0.12300
C1656       C  0.50691896  0.82529179  0.62861167     0.01200
C1657       C  0.49565439  0.83090574  0.50895147     0.40500
C1658       C  0.51098877  0.82255583  0.66852284     0.37100
C1659       C  0.47185141  0.77438475  0.61118762     0.36800
C1660       C  0.44453244  0.80540274  0.72572708     0.37600
N1661       N  0.49209987  0.83198831  0.47650147    -0.43200
N1662       N  0.51419599  0.82019612  0.70039612    -0.43700
N1663       N  0.43916996  0.81239401  0.74775813    -0.41000
N1664       N  0.47693515  0.76807178  0.58691774    -0.42500
H1665       H  0.44955252  0.75568206  0.67129572     0.13700
H1666       H  0.46782686  0.82370148  0.66599377     0.10200
H1667       H  0.46954798  0.81035881  0.56428221     0.11300
H1668       H  0.53722488  0.84398792  0.61454852     0.17100
C1669       C  0.45304517  0.72914209  0.74215822    -0.01100
C1670       C  0.43562715  0.71083697  0.74102799     0.07500
C1671       C  0.41792904  0.70968412  0.73897821    -0.07100
C1672       C  0.41717861  0.72638108  0.73885366     0.04900
C1673       C  0.43485080  0.74523410  0.73893816    -0.14300
C1674       C  0.45254821  0.74582614  0.74048026    -0.07700
C1675       C  0.43567497  0.69282210  0.74461065     0.05800
C1676       C  0.44263741  0.68969313  0.77928611    -0.08800
C1677       C  0.44466277  0.67392354  0.78341894     0.00800
C1678       C  0.43978455  0.66054766  0.75137330     0.00700
C1679       C  0.43091459  0.66303712  0.71811944    -0.12300
C1680       C  0.42932128  0.67908352  0.71413808     0.01200
C1681       C  0.45078448  0.67210107  0.82203050     0.40500
C1682       C  0.42219826  0.68174139  0.67753298     0.37100
C1683       C  0.47171019  0.73122078  0.74577440     0.36800
C1684       C  0.39785187  0.72279433  0.74184223     0.37600
N1685       N  0.45559019  0.67104666  0.85340859    -0.43200
N1686       N  0.41660610  0.68395892  0.64812065    -0.43700
N1687       N  0.38208262  0.71920996  0.74474629    -0.41000
N1688       N  0.48660983  0.73282529  0.74919560    -0.42500
H1689       H  0.46632290  0.75969255  0.74100250     0.13700
H1690       H  0.40448150  0.69550160  0.73926876     0.10200
H1691       H  0.44669253  0.69989255  0.80346024     0.11300
H1692       H  0.42633292  0.65292492  0.69370431     0.17100
C1693       C  0.51273945  0.64956922  0.86539268    -0.01100
C1694       C  0.49497137  0.64784657  0.87425115     0.07500
C1695       C  0.49016826  0.64874328  0.91361251    -0.07100
C1696       C  0.50331916  0.65257690  0.94395876     0.04900
C1697       C  0.52184619  0.65579704  0.93487855    -0.14300
C1698       C  0.52603391  0.65368039  0.89551195    -0.07700
C1699       C  0.48169070  0.64625506  0.84283270     0.05800
C1700       C  0.46303284  0.62954664  0.84016132    -0.08800
C1701       C  0.44980171  0.62754227  0.81139463     0.00800
C1702       C  0.45508066  0.64309125  0.78457373     0.00700
C1703       C  0.47437007  0.65962964  0.78758193    -0.12300
C1704       C  0.48730211  0.66146041  0.81639265     0.01200
C1705       C  0.43193823  0.60872964  0.81004271     0.40500
C1706       C  0.50595251  0.67954613  0.81935097     0.37100
C1707       C  0.51765558  0.64725857  0.82559460     0.36800
C1708       C  0.49752972  0.65380560  0.98365634     0.37600
N1709       N  0.41798440  0.59330567  0.81009500    -0.43200
N1710       N  0.52084013  0.69407976  0.82177024    -0.43700
N1711       N  0.49268561  0.65467581  0.01536852    -0.41000
N1712       N  0.52156524  0.64534638  0.79373256    -0.42500
H1713       H  0.53993648  0.65564234  0.88797723     0.13700
H1714       H  0.47634262  0.64711250  0.92048090     0.10200
H1715       H  0.45892122  0.61775821  0.86044546     0.11300
H1716       H  0.47919177  0.67175947  0.76791360     0.17100
C1717       C  0.48083596  0.66694007  0.66301661    -0.01100
C1718       C  0.48470677  0.65266667  0.65368250     0.07500
C1719       C  0.47479540  0.63517397  0.67407927    -0.07100
C1720       C  0.46098034  0.63155826  0.70336265     0.04900
C1721       C  0.45629904  0.64564407  0.71278351    -0.14300
C1722       C  0.46702068  0.66347016  0.69202869    -0.07700
C1723       C  0.49951508  0.65601238  0.62347522     0.05800
C1724       C  0.51685879  0.65785725  0.63534992    -0.08800
C1725       C  0.53185867  0.66263807  0.60810632     0.00800
C1726       C  0.52946300  0.66542563  0.56789866     0.00700
C1727       C  0.51162097  0.66257034  0.55599697    -0.12300
C1728       C  0.49680452  0.65804264  0.58331482     0.01200
C1729       C  0.54952772  0.66480377  0.62251685     0.40500
C1730       C  0.47907138  0.65595520  0.56959987     0.37100
C1731       C  0.49165595  0.68576853  0.64460868     0.36800
C1732       C  0.45213565  0.61309074  0.72289412     0.37600
N1733       N  0.56368326  0.66656557  0.63417554    -0.43200
N1734       N  0.46490451  0.65442719  0.55876603    -0.43700
N1735       N  0.44528295  0.59796819  0.73704095    -0.41000
N1736       N  0.50030682  0.70084229  0.62985805    -0.42500
H1737       H  0.46587190  0.67558173  0.69969610     0.13700
H1738       H  0.47801942  0.62426895  0.66721118     0.10200
H1739       H  0.51889656  0.65612261  0.66623197     0.11300
H1740       H  0.50943125  0.66458397  0.52538942     0.17100
C1741       C  0.31992823  0.82993269  0.88035148    -0.01100
C1742       C  0.31642419  0.83115950  0.84025999     0.07500
C1743       C  0.31106087  0.84395870  0.82872915    -0.07100
C1744       C  0.30792424  0.85459834  0.85684626     0.04900
C1745       C  0.31008569  0.85236850  0.89748953    -0.14300
C1746       C  0.31689639  0.84059317  0.90848193    -0.07700
C1747       C  0.31588522  0.81750606  0.81079771     0.05800
C1748       C  0.29865021  0.79940115  0.80689570    -0.08800
C1749       C  0.29721458  0.78565539  0.78010515     0.00800
C1750       C  0.31417963  0.78912816  0.75920653     0.00700
C1751       C  0.33046594  0.80854015  0.75953999    -0.12300
C1752       C  0.33160387  0.82244689  0.78555294     0.01200
C1753       C  0.27761097  0.76963894  0.77230300     0.40500
C1754       C  0.34932191  0.84140315  0.78702448     0.37100
C1755       C  0.32574978  0.81715900  0.89363492     0.36800
C1756       C  0.30216516  0.86733730  0.84297950     0.37600
N1757       N  0.26170474  0.75709261  0.76647363    -0.43200
N1758       N  0.36354831  0.85658811  0.78829656    -0.43700
N1759       N  0.29759683  0.87755063  0.83161561    -0.41000
N1760       N  0.33039438  0.80698608  0.90484706    -0.42500
H1761       H  0.31883704  0.83881885  0.93938750     0.13700
H1762       H  0.30853968  0.84502296  0.79778656     0.10200
H1763       H  0.28596569  0.79625846  0.82406935     0.11300
H1764       H  0.34306847  0.81257690  0.74139308     0.17100
C1765       C  0.29760482  0.78954593  0.64262088    -0.01100
C1766       C  0.31482728  0.80255290  0.62219551     0.07500
C1767       C  0.33231537  0.80490816  0.63416362    -0.07100
C1768       C  0.33306892  0.79497757  0.66699039     0.04900
C1769       C  0.31578463  0.78243350  0.68969983    -0.14300
C1770       C  0.29831135  0.78036504  0.67643830    -0.07700
C1771       C  0.31493290  0.81523538  0.59109803     0.05800
C1772       C  0.31961796  0.83379433  0.60178811    -0.08800
C1773       C  0.31714468  0.84528869  0.57524302     0.00800
C1774       C  0.31009908  0.83829940  0.53687084     0.00700
C1775       C  0.30634995  0.82005964  0.52570849    -0.12300
C1776       C  0.30851799  0.80846932  0.55253881     0.01200
C1777       C  0.32186038  0.86410110  0.58831285     0.40500
C1778       C  0.30336865  0.78939639  0.54043844     0.37100
C1779       C  0.27902353  0.78578328  0.62986185     0.36800
C1780       C  0.35224751  0.79955076  0.67715959     0.37600
N1781       N  0.32566505  0.87916981  0.59894018    -0.43200
N1782       N  0.29917841  0.77407726  0.53080002    -0.43700
N1783       N  0.36782982  0.80356302  0.68452953    -0.41000
N1784       N  0.26417390  0.78264307  0.61905743    -0.42500
H1785       H  0.28493489  0.77162633  0.69303367     0.13700
H1786       H  0.34561683  0.81507289  0.61834333     0.10200
H1787       H  0.32453696  0.83901457  0.63151382     0.11300
H1788       H  0.30079888  0.81440882  0.49650895     0.17100
C1789       C  0.39202358  0.76623626  0.77941400    -0.01100
C1790       C  0.38181207  0.76421851  0.74445649     0.07500
C1791       C  0.38913749  0.76166290  0.70898019    -0.07100
C1792       C  0.40530069  0.75998667  0.70801222     0.04900
C1793       C  0.41680818  0.76377834  0.74255059    -0.14300
C1794       C  0.40985203  0.76758672  0.77759779    -0.07700
C1795       C  0.36430501  0.76581054  0.74362856     0.05800
C1796       C  0.36375391  0.77950201  0.76757873    -0.08800
C1797       C  0.34760581  0.78124695  0.76847362     0.00800
C1798       C  0.33297142  0.77207925  0.73875716     0.00700
C1799       C  0.33420929  0.75884541  0.71376171    -0.12300
C1800       C  0.34845979  0.75453814  0.71817236     0.01200
C1801       C  0.34670195  0.79135324  0.80243546     0.40500
C1802       C  0.34575928  0.73782825  0.69745614     0.37100
C1803       C  0.38447909  0.76643824  0.81803381     0.36800
C1804       C  0.40918593  0.75401654  0.67075851     0.37600
N1805       N  0.34665458  0.79937977  0.83056906    -0.43200
N1806       N  0.34343896  0.72433602  0.68108065    -0.43700
N1807       N  0.41180310  0.74912247  0.64055096    -0.41000
N1808       N  0.37852219  0.76658803  0.84905297    -0.42500
H1809       H  0.41796921  0.77168054  0.80449853     0.13700
H1810       H  0.38213071  0.76079012  0.68139627     0.10200
H1811       H  0.37586160  0.78874399  0.78681472     0.11300
H1812       H  0.32355745  0.75120739  0.69092544     0.17100
C1813       C  0.22748222  0.69622489  0.72730237    -0.01100
C1814       C  0.24298143  0.69798937  0.74900372     0.07500
C1815       C  0.23887947  0.68358676  0.77647813    -0.07100
C1816       C  0.21983990  0.66753428  0.78210624     0.04900
C1817       C  0.20418849  0.66486841  0.75826061    -0.14300
C1818       C  0.20895725  0.67946782  0.73008781    -0.07700
C1819       C  0.26322808  0.71521546  0.74443152     0.05800
C1820       C  0.27394103  0.72537221  0.77784763    -0.08800
C1821       C  0.29143726  0.74348763  0.77435847     0.00800
C1822       C  0.29738042  0.75291260  0.73696859     0.00700
C1823       C  0.28797481  0.74111647  0.70351472    -0.12300
C1824       C  0.27164208  0.72234307  0.70705859     0.01200
C1825       C  0.30183635  0.75235120  0.81034884     0.40500
C1826       C  0.26399052  0.71054862  0.67193667     0.37100
C1827       C  0.22985202  0.71174653  0.70292466     0.36800
C1828       C  0.21699399  0.65425379  0.81309538     0.37600
N1829       N  0.30949276  0.75876832  0.84015040    -0.43200
N1830       N  0.25787604  0.70109691  0.64383928    -0.43700
N1831       N  0.21491483  0.64384087  0.83823569    -0.41000
N1832       N  0.23170878  0.72415181  0.68346053    -0.42500
H1833       H  0.19851988  0.67828916  0.70927152     0.13700
H1834       H  0.25060804  0.68495679  0.79399506     0.10200
H1835       H  0.26831832  0.71949352  0.80693990     0.11300
H1836       H  0.29356651  0.74625098  0.67409849     0.17100
C1837       C  0.17192356  0.66176053  0.86142622    -0.01100
C1838       C  0.15193956  0.64791858  0.86649926     0.07500
C1839       C  0.14244973  0.63260514  0.83972386    -0.07100
C1840       C  0.15231368  0.63119758  0.80724569     0.04900
C1841       C  0.17252739  0.64551482  0.80055886    -0.14300
C1842       C  0.18194687  0.66046643  0.82914280    -0.07700
C1843       C  0.14016767  0.65024994  0.89688298     0.05800
C1844       C  0.12628195  0.65405786  0.88430217    -0.08800
C1845       C  0.11534186  0.65731530  0.91144499     0.00800
C1846       C  0.11808595  0.65657490  0.95246608     0.00700
C1847       C  0.13171175  0.65223742  0.96488130    -0.12300
C1848       C  0.14275648  0.64916219  0.93754486     0.01200
C1849       C  0.10167785  0.66160089  0.89590388     0.40500
C1850       C  0.15671734  0.64502274  0.95185986     0.37100
C1851       C  0.18224219  0.67829768  0.88736019     0.36800
C1852       C  0.14095164  0.61492814  0.78107326     0.37600
N1853       N  0.09082032  0.66508652  0.88314440    -0.43200
N1854       N  0.16802111  0.64185083  0.96328762    -0.43700
N1855       N  0.13171981  0.60172879  0.76062524    -0.41000
N1856       N  0.19058025  0.69154616  0.90809431    -0.42500
H1857       H  0.19691339  0.67222383  0.82560809     0.13700
H1858       H  0.12700603  0.62192565  0.84368300     0.10200
H1859       H  0.12428294  0.65488900  0.85296512     0.11300
H1860       H  0.13408258  0.65162946  0.99608155     0.17100
C1861       C  0.15072206  0.63151666  0.66647903    -0.01100
C1862       C  0.14565804  0.64534558  0.66607976     0.07500
C1863       C  0.15184713  0.65877121  0.69673861    -0.07100
C1864       C  0.16349567  0.65916357  0.72705258     0.04900
C1865       C  0.16967244  0.64580499  0.72736808    -0.14300
C1866       C  0.16224586  0.63161574  0.69697488    -0.07700
C1867       C  0.13368383  0.64620387  0.63452533     0.05800
C1868       C  0.11581418  0.64375590  0.64498619    -0.08800
C1869       C  0.10521746  0.64709710  0.61772428     0.00800
C1870       C  0.11230833  0.65261794  0.57876013     0.00700
C1871       C  0.12977527  0.65420123  0.56782610    -0.12300
C1872       C  0.14068895  0.65147408  0.59552641     0.01200
C1873       C  0.08730393  0.64505532  0.63079746     0.40500
C1874       C  0.15972808  0.65574781  0.58417044     0.37100
C1875       C  0.14390513  0.61679422  0.63629307     0.36800
C1876       C  0.16949243  0.67429618  0.75612210     0.37600
N1877       N  0.07300965  0.64354211  0.64131207    -0.43200
N1878       N  0.17505620  0.65932338  0.57523355    -0.43700
N1879       N  0.17414764  0.68667595  0.77866243    -0.41000
N1880       N  0.13852769  0.60507438  0.61196028    -0.42500
H1881       H  0.16493545  0.62014107  0.69665732     0.13700
H1882       H  0.14776426  0.66933569  0.69659571     0.10200
H1883       H  0.11046723  0.63985695  0.67504285     0.11300
H1884       H  0.13554244  0.65875700  0.53820751     0.17100
C1885       C  0.31504909  0.50412881  0.84334149    -0.01100
C1886       C  0.29978726  0.48464111  0.84658892     0.07500
C1887       C  0.28505889  0.47676860  0.81845804    -0.07100
C1888       C  0.28658442  0.48698604  0.78449248     0.04900
C1889       C  0.30365058  0.50571221  0.77731477    -0.14300
C1890       C  0.31650446  0.51462948  0.80966750    -0.07700
C1891       C  0.29926908  0.47146554  0.87690406     0.05800
C1892       C  0.29622160  0.47388675  0.91666586    -0.08800
C1893       C  0.29264024  0.45981776  0.94468857     0.00800
C1894       C  0.29191177  0.44285815  0.93274254     0.00700
C1895       C  0.29626579  0.44123998  0.89325971    -0.12300
C1896       C  0.29991171  0.45528716  0.86552159     0.01200
C1897       C  0.28922312  0.46302289  0.98499336     0.40500
C1898       C  0.30373290  0.45251170  0.82513296     0.37100
C1899       C  0.32986218  0.51341573  0.87318734     0.36800
C1900       C  0.27085442  0.47675463  0.75682174     0.37600
N1901       N  0.28654033  0.46570525  0.01727588    -0.43200
N1902       N  0.30670763  0.45031679  0.79272581    -0.43700
N1903       N  0.25772896  0.46756106  0.73619802    -0.41000
N1904       N  0.34175307  0.52094048  0.89706995    -0.42500
H1905       H  0.32821586  0.52969727  0.80878275     0.13700
H1906       H  0.27269690  0.46201334  0.82213525     0.10200
H1907       H  0.29586222  0.48639628  0.92552414     0.11300
H1908       H  0.29618724  0.42860443  0.88350455     0.17100
C1909       C  0.32297886  0.47292473  0.57788665    -0.01100
C1910       C  0.30844093  0.46863060  0.60633517     0.07500
C1911       C  0.29059774  0.45079227  0.60439469    -0.07100
C1912       C  0.28723389  0.43700288  0.57582981     0.04900
C1913       C  0.30202582  0.44084460  0.54817513    -0.14300
C1914       C  0.31968976  0.45904753  0.54912757    -0.07700
C1915       C  0.31120225  0.48199614  0.63923495     0.05800
C1916       C  0.31371300  0.49991328  0.63140872    -0.08800
C1917       C  0.31313221  0.51128745  0.66194505     0.00800
C1918       C  0.30902778  0.50438579  0.70171285     0.00700
C1919       C  0.30844713  0.48708677  0.70895169    -0.12300
C1920       C  0.30943578  0.47607190  0.67860226     0.01200
C1921       C  0.31553970  0.52936483  0.65063029     0.40500
C1922       C  0.30896396  0.45876612  0.68870325     0.37100
C1923       C  0.34147498  0.49121801  0.57819858     0.36800
C1924       C  0.26812625  0.41934955  0.57493714     0.37600
N1925       N  0.31740922  0.54372770  0.64074927    -0.43200
N1926       N  0.30866753  0.44494504  0.69667309    -0.43700
N1927       N  0.25277265  0.40527734  0.57419672    -0.41000
N1928       N  0.35627619  0.50592282  0.57830438    -0.42500
H1929       H  0.33106747  0.46232958  0.52782246     0.13700
H1930       H  0.27917489  0.44761459  0.62554630     0.10200
H1931       H  0.31540489  0.50472260  0.60110561     0.11300
H1932       H  0.30783388  0.48203574  0.73848337     0.17100
C1933       C  0.39721126  0.59641622  0.70752458    -0.01100
C1934       C  0.38367206  0.59082472  0.73839256     0.07500
C1935       C  0.38839545  0.60296081  0.77101478    -0.07100
C1936       C  0.40692841  0.61990279  0.77474229     0.04900
C1937       C  0.42172703  0.62488150  0.74556241    -0.14300
C1938       C  0.41562939  0.61349342  0.71063797    -0.07700
C1939       C  0.36447372  0.57229934  0.73715487     0.05800
C1940       C  0.36363061  0.55499271  0.74167778    -0.08800
C1941       C  0.34581463  0.53711110  0.74118748     0.00800
C1942       C  0.32789144  0.53612631  0.73621960     0.00700
C1943       C  0.32942561  0.55394467  0.72936249    -0.12300
C1944       C  0.34723054  0.57173014  0.73098121     0.01200
C1945       C  0.34670301  0.52024737  0.74757727     0.40500
C1946       C  0.34748227  0.58928141  0.72563867     0.37100
C1947       C  0.39231640  0.58492380  0.67201312     0.36800
C1948       C  0.41006808  0.63095266  0.81025130     0.37600
N1949       N  0.34788099  0.50705166  0.75329417    -0.43200
N1950       N  0.34766886  0.60334863  0.72164362    -0.43700
N1951       N  0.41136632  0.63890323  0.83948182    -0.41000
N1952       N  0.38824426  0.57559746  0.64371134    -0.42500
H1953       H  0.42503623  0.61767516  0.68508084     0.13700
H1954       H  0.37762607  0.59888399  0.79426517     0.10200
H1955       H  0.37705238  0.55551047  0.74614930     0.11300
H1956       H  0.31689956  0.55441497  0.72165016     0.17100
C1957       C  0.19874277  0.57235892  0.77463273    -0.01100
C1958       C  0.19155078  0.57934087  0.74633847     0.07500
C1959       C  0.18487272  0.56952749  0.71048445    -0.07100
C1960       C  0.18398852  0.55232241  0.70307350     0.04900
C1961       C  0.18879317  0.54360955  0.73350513    -0.14300
C1962       C  0.19747500  0.55488554  0.76792062    -0.07700
C1963       C  0.19068780  0.59678454  0.75272961     0.05800
C1964       C  0.19937181  0.61167172  0.72486186    -0.08800
C1965       C  0.19682125  0.62719071  0.72647423     0.00800
C1966       C  0.18569885  0.62860014  0.75764921     0.00700
C1967       C  0.17822580  0.61398129  0.78695967    -0.12300
C1968       C  0.17975319  0.59789593  0.78366468     0.01200
C1969       C  0.20563129  0.64114292  0.69489960     0.40500
C1970       C  0.16888254  0.58215909  0.81116601     0.37100
C1971       C  0.20744535  0.58278047  0.81080421     0.36800
C1972       C  0.17929911  0.54541807  0.66294827     0.37600
N1973       N  0.21278714  0.65211888  0.66930973    -0.43200
N1974       N  0.16004673  0.56950275  0.83300019    -0.43700
N1975       N  0.17572811  0.54046909  0.63039819    -0.41000
N1976       N  0.21430639  0.59103007  0.83993453    -0.42500
H1977       H  0.20248742  0.54946859  0.79077572     0.13700
H1978       H  0.18024282  0.57543203  0.68783427     0.10200
H1979       H  0.20777135  0.61084051  0.70083236     0.11300
H1980       H  0.17091622  0.61462091  0.81297891     0.17100
C1981       C  0.27463041  0.53487384  0.76560402    -0.01100
C1982       C  0.25994537  0.52702432  0.73711217     0.07500
C1983       C  0.26043666  0.51563805  0.70690071    -0.07100
C1984       C  0.27505367  0.51156546  0.70478542     0.04900
C1985       C  0.29029158  0.51951522  0.73351740    -0.14300
C1986       C  0.28904883  0.53064937  0.76430826    -0.07700
C1987       C  0.24297464  0.52907710  0.73979788     0.05800
C1988       C  0.23980035  0.53859139  0.70977788    -0.08800
C1989       C  0.22248792  0.53833647  0.70824993     0.00800
C1990       C  0.20726245  0.52747418  0.73647471     0.00700
C1991       C  0.21238562  0.52093391  0.76994714    -0.12300
C1992       C  0.22933142  0.52065241  0.77071951     0.01200
C1993       C  0.22071918  0.54843960  0.67567045     0.40500
C1994       C  0.23162957  0.51030753  0.80218387     0.37100
C1995       C  0.27539400  0.54760920  0.79613458     0.36800
C1996       C  0.27215175  0.49775059  0.67473477     0.37600
N1997       N  0.22029810  0.55685085  0.64891827    -0.43200
N1998       N  0.23341164  0.50189232  0.82718121    -0.43700
N1999       N  0.26898809  0.48637320  0.65062830    -0.41000
N2000       N  0.27598483  0.55785606  0.82046653    -0.42500
H2001       H  0.29997086  0.53666758  0.78724905     0.13700
H2002       H  0.24872993  0.50919607  0.68553368     0.10200
H2003       H  0.25069312  0.54576037  0.68667496     0.11300
H2004       H  0.20286189  0.51504626  0.79534499     0.17100
C2005       C  0.15005057  0.50280636  0.82251968    -0.01100
C2006       C  0.14654949  0.48416803  0.82648362     0.07500
C2007       C  0.15566245  0.47822996  0.80039778    -0.07100
C2008       C  0.16817120  0.49037044  0.77064056     0.04900
C2009       C  0.17242019  0.50962179  0.76636785    -0.14300
C2010       C  0.16270345  0.51520488  0.79290563    -0.07700
C2011       C  0.13284021  0.46997693  0.85621423     0.05800
C2012       C  0.11702922  0.45222360  0.84268838    -0.08800
C2013       C  0.10544726  0.43703470  0.86876521     0.00800
C2014       C  0.10929073  0.43962457  0.90967399     0.00700
C2015       C  0.12447117  0.45779825  0.92340094    -0.12300
C2016       C  0.13646624  0.47278612  0.89706314     0.01200
C2017       C  0.09008763  0.41886818  0.85236651     0.40500
C2018       C  0.15328722  0.49025379  0.91238145     0.37100
C2019       C  0.14019502  0.50928012  0.84740988     0.36800
C2020       C  0.17677845  0.48248439  0.74592463     0.37600
N2021       N  0.07790747  0.40431769  0.83894304    -0.43200
N2022       N  0.16681920  0.50420631  0.92467056    -0.43700
N2023       N  0.18367166  0.47590094  0.72697551    -0.41000
N2024       N  0.13237824  0.51453330  0.86741684    -0.42500
H2025       H  0.16394319  0.52888558  0.78993342     0.13700
H2026       H  0.15291380  0.46380930  0.80333301     0.10200
H2027       H  0.11422774  0.44997208  0.81128207     0.11300
H2028       H  0.12777154  0.45994586  0.95461475     0.17100
C2029       C  0.17455812  0.49286396  0.63543940    -0.01100
C2030       C  0.15497043  0.48636516  0.62887627     0.07500
C2031       C  0.14569797  0.49237997  0.65433552    -0.07100
C2032       C  0.15551189  0.50460879  0.68634942     0.04900
C2033       C  0.17548753  0.51138369  0.69384990    -0.14300
C2034       C  0.18446340  0.50498049  0.66744797    -0.07700
C2035       C  0.14329708  0.47158711  0.59838202     0.05800
C2036       C  0.12855427  0.45305828  0.61084266    -0.08800
C2037       C  0.11823389  0.43799237  0.58373628     0.00800
C2038       C  0.12264938  0.44137509  0.54294241     0.00700
C2039       C  0.13675798  0.46029185  0.53046624    -0.12300
C2040       C  0.14707310  0.47532760  0.55774752     0.01200
C2041       C  0.10338765  0.41928001  0.59903996     0.40500
C2042       C  0.16160049  0.49439482  0.54344552     0.37100
C2043       C  0.18453674  0.48629195  0.61119014     0.36800
C2044       C  0.14452398  0.51016945  0.71015188     0.37600
N2045       N  0.09151669  0.40434337  0.61160966    -0.43200
N2046       N  0.17328974  0.50965549  0.53196947    -0.43700
N2047       N  0.13541835  0.51452285  0.72841912    -0.41000
N2048       N  0.19260370  0.48110814  0.59179028    -0.42500
H2049       H  0.19891077  0.50815944  0.67245670     0.13700
H2050       H  0.13051835  0.48723017  0.64940471     0.10200
H2051       H  0.12547386  0.45022617  0.64211486     0.11300
H2052       H  0.14021687  0.46327735  0.49936844     0.17100
loop_ 
_geom_bond_atom_site_label_1 
_geom_bond_atom_site_label_2 
_geom_bond_distance 
_geom_bond_site_symmetry_2 
_ccdc_geom_bond_type 
C1         C1961   1.567       .  S
C1         C1990   1.577       .  S
C1         C2009   1.579       .  S
C1         C2033   1.569       .  S
C2         C1889   1.574       .  S
C2         C1918   1.573       .  S
C2         C1942   1.575       .  S
C2         C1985   1.573       .  S
C3         C1817   1.574       .  S
C3         C1841   1.571       .  S
C3         C1865   1.577       .  S
C3         C1966   1.573       .  S
C4         C1750   1.570       .  S
C4         C1769   1.573       .  S
C4         C1798   1.571       .  S
C4         C1822   1.569       .  S
C5         C1678   1.577       .  S
C5         C1702   1.566       .  S
C5         C1721   1.583       .  S
C5         C1937   1.569       .  S
C6         C1630   1.588       .  S
C6         C1649   1.576       .  S
C6         C1673   1.574       .  S
C6         C1793   1.571       .  S
C7         C1529   1.576       .  S
C7         C1558   1.582       .  S
C7         C1577   1.577       .  S
C7         C1601   1.566       .  S
C8         C1462   1.593       .  S
C8         C1481   1.574       .  S
C8         C1510   1.571       .  S
C8         C1534   1.582       .  S
C9         C1385   1.580       .  S
C9         C1414   1.595       .  S
C9         C1438   1.582       .  S
C9         C1457   1.587       .  S
C10        C1313   1.582       .  S
C10        C1337   1.579       .  S
C10        C1361   1.580       .  S
C10        C1433   1.571       .  S
C11        C1241   1.570       .  S
C11        C1265   1.584       .  S
C11        C1294   1.570       .  S
C11        C1318   1.581       .  S
C12        C1193   1.585       .  S
C12        C1222   1.588       .  S
C12        C1246   1.563       .  S
C12        C1553   1.578       .  S
O13          C16   1.266       .  A
O13         Cd18   2.453       .  S
C14          O23   1.266       .  A
C14          O19   1.266   1_554  A
C14        C1606   1.480       .  S
O15          C21   1.270       .  A
O15         Cd18   2.513       .  S
C16          O24   1.266       .  A
C16        C1121   1.481       .  S
C17          O22   1.270       .  A
C17          O20   1.262       .  A
C17        C1169   1.487       .  S
Cd18         O25   2.388       .  S
Cd18         O24   2.431       .  S
Cd18         O23   2.436   1_556  S
Cd18         O19   2.456       .  S
Cd18         O22   2.491       .  S
Cd18         O20   2.404       .  S
C21          O25   1.263       .  A
C21        C1150   1.487       .  S
O26          C29   1.268       .  A
O26         Cd31   2.486   1_554  S
C27          O36   1.265       .  A
C27          O32   1.268       .  A
C27        C1745   1.487       .  S
O28          C34   1.266       .  A
O28         Cd31   2.466       .  S
C29          O37   1.264       .  A
C29        C1073   1.484       .  S
C30          O35   1.266       .  A
C30          O33   1.265       .  A
C30        C1174   1.480       .  S
Cd31         O38   2.429       .  S
Cd31         O37   2.438   1_556  S
Cd31         O36   2.457       .  S
Cd31         O32   2.461       .  S
Cd31         O35   2.473       .  S
Cd31         O33   2.429       .  S
C34          O38   1.264       .  A
C34        C1097   1.480       .  S
O39          C42   1.269       .  A
O39         Cd44   2.492       .  S
C40          O49   1.264       .  A
C40          O45   1.269   1_554  A
C40        C1409   1.493       .  S
O41          C47   1.269       .  A
O41         Cd44   2.480       .  S
C42          O50   1.264       .  A
C42        C1001   1.485       .  S
C43          O48   1.266       .  A
C43          O46   1.265       .  A
C43        C1025   1.493       .  S
Cd44         O51   2.414       .  S
Cd44         O50   2.413       .  S
Cd44         O49   2.438   1_556  S
Cd44         O45   2.507       .  S
Cd44         O48   2.488       .  S
Cd44         O46   2.459       .  S
C47          O51   1.265       .  A
C47        C1049   1.484       .  S
O52          C55   1.269       .  A
O52         Cd57   2.470   1_554  S
C53          O62   1.264       .  A
C53          O58   1.266       .  A
C53        C2014   1.485       .  S
O54          C60   1.268       .  A
O54         Cd57   2.507       .  S
C55          O63   1.266       .  A
C55         C953   1.484       .  S
C56          O61   1.267       .  A
C56          O59   1.265   1_556  A
C56        C1030   1.485       .  S
Cd57         O64   2.422   1_556  S
Cd57         O63   2.433   1_556  S
Cd57         O62   2.459       .  S
Cd57         O58   2.481       .  S
Cd57         O61   2.496       .  S
Cd57         O59   2.443   1_556  S
C60          O64   1.262   1_556  A
C60         C982   1.482       .  S
O65          C68   1.266   1_556  A
O65         Cd70   2.469       .  S
C66          O75   1.264       .  A
C66          O71   1.267       .  A
C66         C905   1.489       .  S
O67          C73   1.264       .  A
O67         Cd70   2.440       .  S
C68          O76   1.266       .  A
C68        C1486   1.492       .  S
C69          O74   1.266   1_556  A
C69          O72   1.264       .  A
C69         C934   1.484       .  S
Cd70         O77   2.487       .  S
Cd70         O76   2.471   1_556  S
Cd70         O75   2.432       .  S
Cd70         O71   2.497       .  S
Cd70         O74   2.486   1_556  S
Cd70         O72   2.452       .  S
C73          O77   1.266       .  A
C73        C1054   1.484       .  S
O78          C81   1.268   1_554  A
O78         Cd83   2.487       .  S
C79          O88   1.263       .  A
C79          O84   1.268       .  A
C79         C857   1.481       .  S
O80          C86   1.270       .  A
O80         Cd83   2.494       .  S
C81          O89   1.265       .  A
C81        C1625   1.484       .  S
C82          O87   1.267       .  A
C82          O85   1.263       .  A
C82         C929   1.491       .  S
Cd83         O90   2.410       .  S
Cd83         O89   2.435   1_554  S
Cd83         O88   2.417       .  S
Cd83         O84   2.496       .  S
Cd83         O87   2.496       .  S
Cd83         O85   2.444       .  S
C86          O90   1.264       .  A
C86         C881   1.483       .  S
O91          C94   1.263       .  A
O91         Cd96   2.443   1_556  S
C92         O101   1.268       .  A
C92          O97   1.265       .  A
C92         C814   1.483       .  S
O93          C99   1.268       .  A
O93         Cd96   2.471       .  S
C94         O102   1.267   1_556  A
C94        C1846   1.488       .  S
C95         O100   1.266       .  A
C95          O98   1.265       .  A
C95         C833   1.486       .  S
Cd96        O103   2.419       .  S
Cd96        O102   2.477       .  S
Cd96        O101   2.472       .  S
Cd96         O97   2.436       .  S
Cd96        O100   2.469       .  S
Cd96         O98   2.450       .  S
C99         O103   1.263       .  A
C99        C1102   1.476       .  S
O104        C107   1.268       .  A
O104       Cd109   2.497   1_554  S
C105        O114   1.268       .  A
C105        O110   1.264       .  A
C105        C761   1.486       .  S
O106        C112   1.267   1_554  A
O106       Cd109   2.487   1_554  S
C107        O115   1.264       .  A
C107       C1342   1.484       .  S
C108        O113   1.266   1_554  A
C108        O111   1.263       .  A
C108        C838   1.485       .  S
Cd109       O116   2.452       .  S
Cd109       O115   2.430   1_556  S
Cd109       O114   2.484       .  S
Cd109       O110   2.432       .  S
Cd109       O113   2.484       .  S
Cd109       O111   2.458   1_556  S
C112        O116   1.264       .  A
C112        C785   1.481       .  S
O117        C120   1.267   1_556  A
O117       Cd122   2.461       .  S
C118        O127   1.265       .  A
C118        O123   1.269       .  A
C118        C713   1.484       .  S
O119        C125   1.268       .  A
O119       Cd122   2.473       .  S
C120        O128   1.265       .  A
C120       C1289   1.481       .  S
C121        O126   1.269       .  A
C121        O124   1.262       .  A
C121        C790   1.490       .  S
Cd122       O129   2.450       .  S
Cd122       O128   2.464   1_556  S
Cd122       O127   2.429       .  S
Cd122       O123   2.487       .  S
Cd122       O126   2.500       .  S
Cd122       O124   2.430       .  S
C125        O129   1.267       .  A
C125        C737   1.491       .  S
O130        C133   1.268       .  A
O130       Cd135   2.494       .  S
C131        O140   1.267       .  A
C131        O136   1.268   1_556  A
C131       C1697   1.488       .  S
O132        C138   1.263   1_556  A
O132       Cd135   2.438   1_556  S
C133        O141   1.264       .  A
C133        C694   1.487       .  S
C134        O139   1.267   1_554  A
C134        O137   1.264       .  A
C134        C742   1.486       .  S
Cd135       O142   2.484       .  S
Cd135       O141   2.425       .  S
Cd135       O140   2.441   1_554  S
Cd135       O136   2.471       .  S
Cd135       O139   2.491   1_554  S
Cd135       O137   2.451       .  S
C138        O142   1.267       .  A
C138        C886   1.479   1_554  S
O143        C146   1.265   1_556  A
O143       Cd148   2.493       .  S
C144        O153   1.265       .  A
C144        O149   1.266       .  A
C144        C641   1.487       .  S
O145        C151   1.265   1_554  A
O145       Cd148   2.461   1_554  S
C146        O154   1.263       .  A
C146       C1198   1.487       .  S
C147        O152   1.264       .  A
C147        O150   1.266       .  A
C147        C670   1.491       .  S
Cd148       O155   2.457       .  S
Cd148       O154   2.455   1_556  S
Cd148       O153   2.462       .  S
Cd148       O149   2.456       .  S
Cd148       O152   2.479       .  S
Cd148       O150   2.464       .  S
C151        O155   1.265       .  A
C151       C1145   1.483       .  S
O156        C159   1.265       .  A
O156       Cd161   2.477       .  S
C157        O166   1.266       .  A
C157        O162   1.267       .  A
C157       C1894   1.488       .  S
O158        C164   1.266       .  A
O158       Cd161   2.499   1_556  S
C159        O167   1.265       .  A
C159        C617   1.487       .  S
C160        O165   1.264       .  A
C160        O163   1.265   1_556  A
C160        C977   1.484       .  S
Cd161       O168   2.446   1_554  S
Cd161       O167   2.446       .  S
Cd161       O166   2.435   1_554  S
Cd161       O162   2.474   1_554  S
Cd161       O165   2.481   1_554  S
Cd161       O163   2.471       .  S
C164        O168   1.261       .  A
C164        C665   1.490       .  S
O169        C172   1.268       .  A
O169       Cd174   2.458       .  S
C170        O179   1.264       .  A
C170        O175   1.267       .  A
C170       C1126   1.472       .  S
O171        C177   1.263       .  A
O171       Cd174   2.419       .  S
C172        O180   1.266       .  A
C172       C1582   1.482       .  S
C173        O178   1.270       .  A
C173        O176   1.262       .  A
C173        C598   1.487       .  S
Cd174       O181   2.502       .  S
Cd174       O180   2.435       .  S
Cd174       O179   2.427       .  S
Cd174       O175   2.461       .  S
Cd174       O178   2.516       .  S
Cd174       O176   2.429       .  S
C177        O181   1.272       .  A
C177        C574   1.481       .  S
O182        C185   1.265       .  A
O182       Cd187   2.474       .  S
C183        O192   1.263       .  A
C183        O188   1.266       .  A
C183       C1078   1.489       .  S
O184        C190   1.263       .  A
O184       Cd187   2.425       .  S
C185        O193   1.266       .  A
C185       C1774   1.487       .  S
C186        O191   1.267       .  A
C186        O189   1.266       .  A
C186        C593   1.496       .  S
Cd187       O194   2.510       .  S
Cd187       O193   2.480       .  S
Cd187       O192   2.453       .  S
Cd187       O188   2.504       .  S
Cd187       O191   2.487       .  S
Cd187       O189   2.485       .  S
C190        O194   1.269       .  A
C190        C545   1.487       .  S
O195        C198   1.267       .  A
O195       Cd200   2.484       .  S
C196        O205   1.263       .  A
C196        O201   1.266       .  A
C196       C1390   1.495       .  S
O197        C203   1.264       .  A
O197       Cd200   2.486       .  S
C198        O206   1.266       .  A
C198       C1006   1.484       .  S
C199        O204   1.262       .  A
C199        O202   1.266       .  A
C199        C521   1.488       .  S
Cd200       O207   2.484       .  S
Cd200       O206   2.442       .  S
Cd200       O205   2.467       .  S
Cd200       O201   2.501       .  S
Cd200       O204   2.428       .  S
Cd200       O202   2.499       .  S
C203        O207   1.267       .  A
C203        C497   1.494       .  S
O208        C211   1.266       .  A
O208       Cd213   2.475       .  S
C209        O218   1.265       .  A
C209        O214   1.267       .  A
C209       C2038   1.489       .  S
O210        C216   1.267       .  A
O210       Cd213   2.510       .  S
C211        O219   1.265       .  A
C211        C958   1.488       .  S
C212        O217   1.268       .  A
C212        O215   1.264       .  A
C212        C478   1.485       .  S
Cd213       O220   2.449       .  S
Cd213       O219   2.450       .  S
Cd213       O218   2.455       .  S
Cd213       O214   2.473       .  S
Cd213       O217   2.491       .  S
Cd213       O215   2.450       .  S
C216        O220   1.264       .  A
C216        C502   1.495       .  S
O221        C224   1.264       .  A
O221       Cd226   2.462       .  S
C222        O231   1.264       .  A
C222        O227   1.267       .  A
C222       C1505   1.480       .  S
O223        C229   1.264       .  A
O223       Cd226   2.468       .  S
C224        O232   1.266       .  A
C224        C910   1.482       .  S
C225        O230   1.267       .  A
C225        O228   1.265       .  A
C225        C454   1.484       .  S
Cd226       O233   2.465       .  S
Cd226       O232   2.457       .  S
Cd226       O231   2.464       .  S
Cd226       O227   2.460       .  S
Cd226       O230   2.474       .  S
Cd226       O228   2.446       .  S
C229        O233   1.265       .  A
C229        C526   1.480       .  S
O234        C237   1.266       .  A
O234       Cd239   2.459       .  S
C235        O244   1.266       .  A
C235        O240   1.264       .  A
C235       C1654   1.483       .  S
O236        C242   1.263       .  A
O236       Cd239   2.458       .  S
C237        O245   1.267       .  A
C237        C862   1.482       .  S
C238        O243   1.266       .  A
C238        O241   1.262       .  A
C238        C449   1.488       .  S
Cd239       O246   2.490       .  S
Cd239       O245   2.429       .  S
Cd239       O244   2.445       .  S
Cd239       O240   2.455       .  S
Cd239       O243   2.476       .  S
Cd239       O241   2.458       .  S
C242        O246   1.264       .  A
C242        C430   1.489       .  S
O247        C250   1.264       .  A
O247       Cd252   2.422       .  S
C248        O257   1.265       .  A
C248        O253   1.265       .  A
C248       C1870   1.481       .  S
O249        C255   1.261       .  A
O249       Cd252   2.451       .  S
C250        O258   1.268       .  A
C250        C809   1.480       .  S
C251        O256   1.267       .  A
C251        O254   1.266       .  A
C251        C401   1.493       .  S
Cd252       O259   2.507       .  S
Cd252       O258   2.469       .  S
Cd252       O257   2.470       .  S
Cd252       O253   2.446       .  S
Cd252       O256   2.477       .  S
Cd252       O254   2.460       .  S
C255        O259   1.266       .  A
C255        C550   1.490       .  S
O260        C263   1.267       .  A
O260       Cd265   2.500       .  S
C261        O270   1.267       .  A
C261        O266   1.266       .  A
C261       C1366   1.487       .  S
O262        C268   1.269       .  A
O262       Cd265   2.523       .  S
C263        O271   1.264       .  A
C263        C766   1.486       .  S
C264        O269   1.263       .  A
C264        O267   1.265       .  A
C264        C406   1.495       .  S
Cd265       O272   2.431       .  S
Cd265       O271   2.418       .  S
Cd265       O270   2.470       .  S
Cd265       O266   2.477       .  S
Cd265       O269   2.496       .  S
Cd265       O267   2.485       .  S
C268        O272   1.263       .  A
C268        C377   1.490       .  S
O273        C276   1.268       .  A
O273       Cd278   2.475       .  S
C274        O283   1.265       .  A
C274        O279   1.263       .  A
C274        C718   1.484       .  S
O275        C281   1.264       .  A
O275       Cd278   2.468       .  S
C276        O284   1.267       .  A
C276       C1270   1.492       .  S
C277        O282   1.267       .  A
C277        O280   1.261       .  A
C277        C353   1.492       .  S
Cd278       O285   2.495       .  S
Cd278       O284   2.463       .  S
Cd278       O283   2.485       .  S
Cd278       O279   2.460       .  S
Cd278       O282   2.497       .  S
Cd278       O280   2.455       .  S
C281        O285   1.267       .  A
C281        C382   1.493       .  S
O286        C289   1.267       .  A
O286       Cd291   2.450       .  S
C287        O296   1.265       .  A
C287        O292   1.266       .  A
C287        C689   1.480       .  S
O288        C294   1.269       .  A
O288       Cd291   2.496       .  S
C289        O297   1.267       .  A
C289       C1726   1.488       .  S
C290        O295   1.269       .  A
C290        O293   1.261       .  A
C290        C358   1.491       .  S
Cd291       O298   2.419       .  S
Cd291       O297   2.463       .  S
Cd291       O296   2.464       .  S
Cd291       O292   2.461       .  S
Cd291       O295   2.512       .  S
Cd291       O293   2.431       .  S
C294        O298   1.263       .  A
C294        C425   1.485       .  S
O299        C302   1.265       .  A
O299       Cd304   2.500       .  S
C300        O309   1.265       .  A
C300        O305   1.270       .  A
C300        C646   1.486       .  S
O301        C307   1.267       .  A
O301       Cd304   2.493       .  S
C302        O310   1.265       .  A
C302       C1217   1.492       .  S
C303        O308   1.268       .  A
C303        O306   1.262       .  A
C303        C569   1.482       .  S
Cd304       O311   2.459       .  S
Cd304       O310   2.448       .  S
Cd304       O309   2.416       .  S
Cd304       O305   2.472       .  S
Cd304       O308   2.496       .  S
Cd304       O306   2.426       .  S
C307        O311   1.265       .  A
C307        C334   1.485       .  S
O312        C315   1.269       .  A
O312       Cd317   2.471       .  S
C313        O322   1.263       .  A
C313        O318   1.268       .  A
C313       C1913   1.488       .  S
O314        C320   1.266       .  A
O314       Cd317   2.504       .  S
C315        O323   1.265       .  A
C315        C622   1.481       .  S
C316        O321   1.267       .  A
C316        O319   1.265       .  A
C316        C329   1.494       .  S
Cd317       O324   2.459       .  S
Cd317       O323   2.438       .  S
Cd317       O322   2.434       .  S
Cd317       O318   2.513       .  S
Cd317       O321   2.473       .  S
Cd317       O319   2.475       .  S
C320        O324   1.263       .  A
C320        C473   1.494       .  S
C325        C326   1.411       .  A
C325        C330   1.402       .  A
C325        C339   1.444       .  S
C326        C331   1.493       .  S
C326        C327   1.404       .  A
C327        C328   1.403       .  A
C327        H346   1.085       .  S
C328        C329   1.419       .  A
C328        C340   1.444       .  S
C329        C330   1.408       .  A
C330        H345   1.084       .  S
C331        C332   1.405       .  A
C331        C336   1.412       .  A
C332        C333   1.403       .  A
C332        H347   1.084       .  S
C333        C334   1.413       .  A
C333        C337   1.443       .  S
C334        C335   1.406       .  A
C335        C336   1.401       .  A
C335        H348   1.085       .  S
C336        C338   1.444       .  S
C337        N341   1.157       .  T
C338        N342   1.157       .  T
C339        N344   1.157       .  T
C340        N343   1.158       .  T
C349        C350   1.409       .  A
C349        C354   1.402       .  A
C349        C363   1.443       .  S
C350        C355   1.486       .  S
C350        C351   1.401       .  A
C351        C352   1.401       .  A
C351        H370   1.085       .  S
C352        C353   1.421       .  A
C352        C364   1.445       .  S
C353        C354   1.408       .  A
C354        H369   1.084       .  S
C355        C356   1.399       .  A
C355        C360   1.410       .  A
C356        C357   1.400       .  A
C356        H371   1.085       .  S
C357        C358   1.420       .  A
C357        C361   1.445       .  S
C358        C359   1.407       .  A
C359        C360   1.404       .  A
C359        H372   1.084       .  S
C360        C362   1.444       .  S
C361        N365   1.158       .  T
C362        N366   1.157       .  T
C363        N368   1.157       .  T
C364        N367   1.158       .  T
C373        C374   1.412       .  A
C373        C378   1.408       .  A
C373        C387   1.443       .  S
C374        C379   1.493       .  S
C374        C375   1.402       .  A
C375        C376   1.398       .  A
C375        H394   1.085       .  S
C376        C377   1.417       .  A
C376        C388   1.445       .  S
C377        C378   1.408       .  A
C378        H393   1.084       .  S
C379        C380   1.403       .  A
C379        C384   1.411       .  A
C380        C381   1.403       .  A
C380        H395   1.085       .  S
C381        C382   1.418       .  A
C381        C385   1.444       .  S
C382        C383   1.407       .  A
C383        C384   1.403       .  A
C383        H396   1.084       .  S
C384        C386   1.444       .  S
C385        N389   1.157       .  T
C386        N390   1.157       .  T
C387        N392   1.157       .  T
C388        N391   1.157       .  T
C397        C398   1.411       .  A
C397        C402   1.401   1_655  A
C397        C411   1.444       .  S
C398        C403   1.492       .  S
C398        C399   1.403       .  A
C399        C400   1.404   1_655  A
C399        H418   1.085       .  S
C400        C401   1.418       .  A
C400        C412   1.444       .  S
C401        C402   1.408       .  A
C402        H417   1.084       .  S
C403        C404   1.403       .  A
C403        C408   1.411       .  A
C404        C405   1.405       .  A
C404        H419   1.085       .  S
C405        C406   1.420       .  A
C405        C409   1.444       .  S
C406        C407   1.407       .  A
C407        C408   1.402       .  A
C407        H420   1.084       .  S
C408        C410   1.444       .  S
C409        N413   1.157       .  T
C410        N414   1.157       .  T
C411        N416   1.157       .  T
C412        N415   1.157       .  T
C421        C422   1.410       .  A
C421        C426   1.397       .  A
C421        C435   1.445       .  S
C422        C427   1.487       .  S
C422        C423   1.404       .  A
C423        C424   1.403       .  A
C423        H442   1.085       .  S
C424        C425   1.415       .  A
C424        C436   1.443       .  S
C425        C426   1.407       .  A
C426        H441   1.085       .  S
C427        C428   1.404       .  A
C427        C432   1.410       .  A
C428        C429   1.404       .  A
C428        H443   1.085       .  S
C429        C430   1.417       .  A
C429        C433   1.444       .  S
C430        C431   1.407       .  A
C431        C432   1.397       .  A
C431        H444   1.084       .  S
C432        C434   1.445       .  S
C433        N437   1.157       .  T
C434        N438   1.157       .  T
C435        N440   1.157       .  T
C436        N439   1.157       .  T
C445        C446   1.407       .  A
C445        C450   1.399       .  A
C445        C459   1.444       .  S
C446        C451   1.480       .  S
C446        C447   1.400       .  A
C447        C448   1.401       .  A
C447        H466   1.085       .  S
C448        C449   1.419       .  A
C448        C460   1.444       .  S
C449        C450   1.407       .  A
C450        H465   1.084       .  S
C451        C452   1.402   1_565  A
C451        C456   1.407   1_565  A
C452        C453   1.402       .  A
C452        H467   1.085   1_545  S
C453        C454   1.415       .  A
C453        C457   1.444       .  S
C454        C455   1.407       .  A
C455        C456   1.399       .  A
C455        H468   1.085       .  S
C456        C458   1.444   1_545  S
C457        N461   1.157       .  T
C458        N462   1.157       .  T
C459        N464   1.157       .  T
C460        N463   1.157       .  T
C469        C470   1.408       .  A
C469        C474   1.400       .  A
C469        C483   1.444       .  S
C470        C475   1.486       .  S
C470        C471   1.402       .  A
C471        C472   1.405       .  A
C471        H490   1.085       .  S
C472        C473   1.419       .  A
C472        C484   1.443       .  S
C473        C474   1.409       .  A
C474        H489   1.084       .  S
C475        C476   1.403       .  A
C475        C480   1.409       .  A
C476        C477   1.406       .  A
C476        H491   1.084       .  S
C477        C478   1.415       .  A
C477        C481   1.444       .  S
C478        C479   1.405       .  A
C479        C480   1.400       .  A
C479        H492   1.085       .  S
C480        C482   1.445       .  S
C481        N485   1.157       .  T
C482        N486   1.157       .  T
C483        N488   1.157       .  T
C484        N487   1.157       .  T
C493        C494   1.409       .  A
C493        C498   1.401       .  A
C493        C507   1.444       .  S
C494        C499   1.489       .  S
C494        C495   1.402       .  A
C495        C496   1.406       .  A
C495        H514   1.085       .  S
C496        C497   1.420       .  A
C496        C508   1.444       .  S
C497        C498   1.407       .  A
C498        H513   1.084       .  S
C499        C500   1.404   1_655  A
C499        C504   1.408   1_655  A
C500        C501   1.408       .  A
C500        H515   1.085   1_455  S
C501        C502   1.419       .  A
C501        C505   1.444       .  S
C502        C503   1.408       .  A
C503        C504   1.398       .  A
C503        H516   1.084       .  S
C504        C506   1.444   1_455  S
C505        N509   1.157       .  T
C506        N510   1.157       .  T
C507        N512   1.157       .  T
C508        N511   1.157       .  T
C517        C518   1.409       .  A
C517        C522   1.394       .  A
C517        C531   1.446       .  S
C518        C523   1.482       .  S
C518        C519   1.402       .  A
C519        C520   1.406       .  A
C519        H538   1.084       .  S
C520        C521   1.418       .  A
C520        C532   1.443       .  S
C521        C522   1.406       .  A
C522        H537   1.085       .  S
C523        C524   1.401       .  A
C523        C528   1.408       .  A
C524        C525   1.401       .  A
C524        H539   1.085       .  S
C525        C526   1.416       .  A
C525        C529   1.445       .  S
C526        C527   1.405       .  A
C527        C528   1.400       .  A
C527        H540   1.085       .  S
C528        C530   1.444       .  S
C529        N533   1.158       .  T
C530        N534   1.157       .  T
C531        N536   1.157       .  T
C532        N535   1.157       .  T
C541        C542   1.409       .  A
C541        C546   1.406       .  A
C541        C555   1.443       .  S
C542        C547   1.482       .  S
C542        C543   1.399       .  A
C543        C544   1.397       .  A
C543        H562   1.085       .  S
C544        C545   1.417       .  A
C544        C556   1.445       .  S
C545        C546   1.408       .  A
C546        H561   1.084       .  S
C547        C548   1.399       .  A
C547        C552   1.408       .  A
C548        C549   1.400       .  A
C548        H563   1.085       .  S
C549        C550   1.419       .  A
C549        C553   1.445       .  S
C550        C551   1.408       .  A
C551        C552   1.404       .  A
C551        H564   1.084       .  S
C552        C554   1.443       .  S
C553        N557   1.157       .  T
C554        N558   1.157       .  T
C555        N560   1.157       .  T
C556        N559   1.157       .  T
C565        C566   1.410       .  A
C565        C570   1.403       .  A
C565        C579   1.443       .  S
C566        C571   1.485       .  S
C566        C567   1.401       .  A
C567        C568   1.398       .  A
C567        H586   1.085       .  S
C568        C569   1.415       .  A
C568        C580   1.445       .  S
C569        C570   1.406       .  A
C570        H585   1.084       .  S
C571        C572   1.402       .  A
C571        C576   1.411       .  A
C572        C573   1.399       .  A
C572        H587   1.085       .  S
C573        C574   1.415       .  A
C573        C577   1.445       .  S
C574        C575   1.405       .  A
C575        C576   1.404       .  A
C575        H588   1.084       .  S
C576        C578   1.443       .  S
C577        N581   1.157       .  T
C578        N582   1.157       .  T
C579        N584   1.157       .  T
C580        N583   1.157       .  T
C589        C590   1.409       .  A
C589        C594   1.403       .  A
C589        C603   1.444       .  S
C590        C595   1.491       .  S
C590        C591   1.403       .  A
C591        C592   1.405       .  A
C591        H610   1.085       .  S
C592        C593   1.419       .  A
C592        C604   1.444       .  S
C593        C594   1.408       .  A
C594        H609   1.084       .  S
C595        C596   1.402       .  A
C595        C600   1.413       .  A
C596        C597   1.402   1_565  A
C596        H611   1.085       .  S
C597        C598   1.417       .  A
C597        C601   1.445       .  S
C598        C599   1.404       .  A
C599        C600   1.404   1_545  A
C599        H612   1.084       .  S
C600        C602   1.443       .  S
C601        N605   1.158       .  T
C602        N606   1.157       .  T
C603        N608   1.157       .  T
C604        N607   1.157       .  T
C613        C614   1.407       .  A
C613        C618   1.396       .  A
C613        C627   1.445       .  S
C614        C619   1.480       .  S
C614        C615   1.401       .  A
C615        C616   1.405       .  A
C615        H634   1.085       .  S
C616        C617   1.419       .  A
C616        C628   1.444       .  S
C617        C618   1.406       .  A
C618        H633   1.084       .  S
C619        C620   1.401       .  A
C619        C624   1.408       .  A
C620        C621   1.400       .  A
C620        H635   1.085       .  S
C621        C622   1.415       .  A
C621        C625   1.445       .  S
C622        C623   1.405       .  A
C623        C624   1.400       .  A
C623        H636   1.085       .  S
C624        C626   1.444       .  S
C625        N629   1.157       .  T
C626        N630   1.157       .  T
C627        N632   1.157       .  T
C628        N631   1.157       .  T
C637        C638   1.406       .  A
C637        C642   1.399       .  A
C637        C651   1.444       .  S
C638        C643   1.477       .  S
C638        C639   1.400       .  A
C639        C640   1.400       .  A
C639        H658   1.085       .  S
C640        C641   1.418       .  A
C640        C652   1.444       .  S
C641        C642   1.408       .  A
C642        H657   1.084       .  S
C643        C644   1.398       .  A
C643        C648   1.406       .  A
C644        C645   1.396       .  A
C644        H659   1.085       .  S
C645        C646   1.418       .  A
C645        C649   1.445       .  S
C646        C647   1.409       .  A
C647        C648   1.402       .  A
C647        H660   1.084       .  S
C648        C650   1.443       .  S
C649        N653   1.157       .  T
C650        N654   1.157       .  T
C651        N656   1.157       .  T
C652        N655   1.157       .  T
C661        C662   1.412       .  A
C661        C666   1.403       .  A
C661        C675   1.444   1_556  S
C662        C667   1.491       .  S
C662        C663   1.402       .  A
C663        C664   1.398       .  A
C663        H682   1.085       .  S
C664        C665   1.418       .  A
C664        C676   1.444       .  S
C665        C666   1.408       .  A
C666        H681   1.084   1_556  S
C667        C668   1.403       .  A
C667        C672   1.412       .  A
C668        C669   1.404       .  A
C668        H683   1.085       .  S
C669        C670   1.419       .  A
C669        C673   1.444       .  S
C670        C671   1.406       .  A
C671        C672   1.398       .  A
C671        H684   1.084   1_556  S
C672        C674   1.445   1_556  S
C673        N677   1.157       .  T
C674        N678   1.157       .  T
C675        N680   1.157       .  T
C676        N679   1.157       .  T
C685        C686   1.413       .  A
C685        C690   1.399       .  A
C685        C699   1.444       .  S
C686        C691   1.491       .  S
C686        C687   1.406       .  A
C687        C688   1.402       .  A
C687        H706   1.085       .  S
C688        C689   1.413       .  A
C688        C700   1.445       .  S
C689        C690   1.403       .  A
C690        H705   1.085       .  S
C691        C692   1.405       .  A
C691        C696   1.412       .  A
C692        C693   1.403       .  A
C692        H707   1.084       .  S
C693        C694   1.415       .  A
C693        C697   1.443       .  S
C694        C695   1.406       .  A
C695        C696   1.397       .  A
C695        H708   1.085       .  S
C696        C698   1.445       .  S
C697        N701   1.157       .  T
C698        N702   1.157       .  T
C699        N704   1.157       .  T
C700        N703   1.158       .  T
C709        C710   1.408       .  A
C709        C714   1.403       .  A
C709        C723   1.443       .  S
C710        C715   1.481       .  S
C710        C711   1.399       .  A
C711        C712   1.399       .  A
C711        H730   1.085       .  S
C712        C713   1.416       .  A
C712        C724   1.444       .  S
C713        C714   1.407       .  A
C714        H729   1.084       .  S
C715        C716   1.401       .  A
C715        C720   1.408       .  A
C716        C717   1.402       .  A
C716        H731   1.085       .  S
C717        C718   1.416       .  A
C717        C721   1.444       .  S
C718        C719   1.406       .  A
C719        C720   1.400       .  A
C719        H732   1.085       .  S
C720        C722   1.444       .  S
C721        N725   1.157       .  T
C722        N726   1.157       .  T
C723        N728   1.157       .  T
C724        N727   1.157       .  T
C733        C734   1.408       .  A
C733        C738   1.399       .  A
C733        C747   1.444       .  S
C734        C739   1.483       .  S
C734        C735   1.401   1_556  A
C735        C736   1.404       .  A
C735        H754   1.085       .  S
C736        C737   1.418   1_554  A
C736        C748   1.443       .  S
C737        C738   1.408       .  A
C738        H753   1.084       .  S
C739        C740   1.399   1_556  A
C739        C744   1.410       .  A
C740        C741   1.399       .  A
C740        H755   1.085       .  S
C741        C742   1.416       .  A
C741        C745   1.444       .  S
C742        C743   1.407   1_554  A
C743        C744   1.404       .  A
C743        H756   1.084       .  S
C744        C746   1.443       .  S
C745        N749   1.157       .  T
C746        N750   1.157       .  T
C747        N752   1.157       .  T
C748        N751   1.157       .  T
C757        C758   1.409       .  A
C757        C762   1.397       .  A
C757        C771   1.445       .  S
C758        C763   1.484       .  S
C758        C759   1.402       .  A
C759        C760   1.404       .  A
C759        H778   1.085       .  S
C760        C761   1.417       .  A
C760        C772   1.443       .  S
C761        C762   1.406       .  A
C762        H777   1.085       .  S
C763        C764   1.403       .  A
C763        C768   1.409       .  A
C764        C765   1.406       .  A
C764        H779   1.085       .  S
C765        C766   1.417       .  A
C765        C769   1.444       .  S
C766        C767   1.406       .  A
C767        C768   1.393       .  A
C767        H780   1.085       .  S
C768        C770   1.445       .  S
C769        N773   1.157       .  T
C770        N774   1.157       .  T
C771        N776   1.157       .  T
C772        N775   1.157       .  T
C781        C782   1.410       .  A
C781        C786   1.401       .  A
C781        C795   1.444       .  S
C782        C787   1.487       .  S
C782        C783   1.403   1_556  A
C783        C784   1.402       .  A
C783        H802   1.085       .  S
C784        C785   1.414   1_554  A
C784        C796   1.444       .  S
C785        C786   1.404       .  A
C786        H801   1.085       .  S
C787        C788   1.401       .  A
C787        C792   1.409   1_556  A
C788        C789   1.399       .  A
C788        H803   1.085       .  S
C789        C790   1.419       .  A
C789        C793   1.445       .  S
C790        C791   1.408       .  A
C791        C792   1.404   1_556  A
C791        H804   1.084   1_556  S
C792        C794   1.443       .  S
C793        N797   1.158       .  T
C794        N798   1.157       .  T
C795        N800   1.157       .  T
C796        N799   1.157       .  T
C805        C806   1.407       .  A
C805        C810   1.400       .  A
C805        C819   1.443       .  S
C806        C811   1.476       .  S
C806        C807   1.399       .  A
C807        C808   1.397       .  A
C807        H826   1.085       .  S
C808        C809   1.416       .  A
C808        C820   1.445       .  S
C809        C810   1.407       .  A
C810        H825   1.084       .  S
C811        C812   1.399       .  A
C811        C816   1.408       .  A
C812        C813   1.402       .  A
C812        H827   1.085       .  S
C813        C814   1.417       .  A
C813        C817   1.443       .  S
C814        C815   1.407       .  A
C815        C816   1.397       .  A
C815        H828   1.085       .  S
C816        C818   1.446       .  S
C817        N821   1.157       .  T
C818        N822   1.157       .  T
C819        N824   1.157       .  T
C820        N823   1.157       .  T
C829        C830   1.409       .  A
C829        C834   1.399   1_655  A
C829        C843   1.444   1_554  S
C830        C835   1.484       .  S
C830        C831   1.402       .  A
C831        C832   1.402   1_655  A
C831        H850   1.085       .  S
C832        C833   1.417       .  A
C832        C844   1.444       .  S
C833        C834   1.407       .  A
C834        H849   1.084   1_554  S
C835        C836   1.402       .  A
C835        C840   1.409   1_554  A
C836        C837   1.400       .  A
C836        H851   1.085       .  S
C837        C838   1.416       .  A
C837        C841   1.444       .  S
C838        C839   1.407   1_554  A
C839        C840   1.401       .  A
C839        H852   1.085       .  S
C840        C842   1.444       .  S
C841        N845   1.157       .  T
C842        N846   1.157       .  T
C843        N848   1.157       .  T
C844        N847   1.157       .  T
C853        C854   1.410       .  A
C853        C858   1.404       .  A
C853        C867   1.443       .  S
C854        C859   1.483       .  S
C854        C855   1.400       .  A
C855        C856   1.395       .  A
C855        H874   1.085       .  S
C856        C857   1.415       .  A
C856        C868   1.445       .  S
C857        C858   1.407       .  A
C858        H873   1.084       .  S
C859        C860   1.402       .  A
C859        C864   1.410       .  A
C860        C861   1.403       .  A
C860        H875   1.085       .  S
C861        C862   1.417       .  A
C861        C865   1.444       .  S
C862        C863   1.404       .  A
C863        C864   1.394       .  A
C863        H876   1.085       .  S
C864        C866   1.445       .  S
C865        N869   1.157       .  T
C866        N870   1.157       .  T
C867        N872   1.157       .  T
C868        N871   1.157       .  T
C877        C878   1.410   1_556  A
C877        C882   1.404       .  A
C877        C891   1.443       .  S
C878        C883   1.483   1_554  S
C878        C879   1.400       .  A
C879        C880   1.396       .  A
C879        H898   1.085       .  S
C880        C881   1.416       .  A
C880        C892   1.445       .  S
C881        C882   1.407   1_554  A
C882        H897   1.084       .  S
C883        C884   1.403   1_556  A
C883        C888   1.411       .  A
C884        C885   1.402       .  A
C884        H899   1.085       .  S
C885        C886   1.413   1_554  A
C885        C889   1.444       .  S
C886        C887   1.404       .  A
C887        C888   1.399       .  A
C887        H900   1.085       .  S
C888        C890   1.445       .  S
C889        N893   1.157       .  T
C890        N894   1.157       .  T
C891        N896   1.157       .  T
C892        N895   1.157       .  T
C901        C902   1.409       .  A
C901        C906   1.396       .  A
C901        C915   1.445       .  S
C902        C907   1.484       .  S
C902        C903   1.402       .  A
C903        C904   1.405       .  A
C903        H922   1.085       .  S
C904        C905   1.418       .  A
C904        C916   1.443       .  S
C905        C906   1.407       .  A
C906        H921   1.084       .  S
C907        C908   1.402       .  A
C907        C912   1.409       .  A
C908        C909   1.402       .  A
C908        H923   1.085       .  S
C909        C910   1.417       .  A
C909        C913   1.445       .  S
C910        C911   1.404       .  A
C911        C912   1.398       .  A
C911        H924   1.085       .  S
C912        C914   1.443       .  S
C913        N917   1.158       .  T
C914        N918   1.157       .  T
C915        N920   1.157       .  T
C916        N919   1.157       .  T
C925        C926   1.408   1_556  A
C925        C930   1.403       .  A
C925        C939   1.444       .  S
C926        C931   1.482   1_554  S
C926        C927   1.398       .  A
C927        C928   1.400       .  A
C927        H946   1.085       .  S
C928        C929   1.420       .  A
C928        C940   1.444       .  S
C929        C930   1.409   1_554  A
C930        H945   1.084       .  S
C931        C932   1.400       .  A
C931        C936   1.409   1_556  A
C932        C933   1.400   1_565  A
C932        H947   1.085       .  S
C933        C934   1.416       .  A
C933        C937   1.444       .  S
C934        C935   1.406   1_556  A
C935        C936   1.403   1_545  A
C935        H948   1.084       .  S
C936        C938   1.444       .  S
C937        N941   1.157       .  T
C938        N942   1.157       .  T
C939        N944   1.157       .  T
C940        N943   1.157       .  T
C949        C950   1.410       .  A
C949        C954   1.402       .  A
C949        C963   1.443       .  S
C950        C955   1.487       .  S
C950        C951   1.403       .  A
C951        C952   1.399       .  A
C951        H970   1.085       .  S
C952        C953   1.415       .  A
C952        C964   1.445       .  S
C953        C954   1.407       .  A
C954        H969   1.084       .  S
C955        C956   1.403       .  A
C955        C960   1.410       .  A
C956        C957   1.403       .  A
C956        H971   1.085       .  S
C957        C958   1.417       .  A
C957        C961   1.444       .  S
C958        C959   1.407       .  A
C959        C960   1.398       .  A
C959        H972   1.084       .  S
C960        C962   1.445       .  S
C961        N965   1.157       .  T
C962        N966   1.157       .  T
C963        N968   1.157       .  T
C964        N967   1.157       .  T
C973        C974   1.411   1_554  A
C973        C978   1.401       .  A
C973        C987   1.444       .  S
C974        C979   1.490       .  S
C974        C975   1.404       .  A
C975        C976   1.402       .  A
C975        H994   1.085       .  S
C976        C977   1.415       .  A
C976        C988   1.445       .  S
C977        C978   1.405   1_556  A
C978        H993   1.085       .  S
C979        C980   1.403   1_556  A
C979        C984   1.412       .  A
C980        C981   1.398       .  A
C980        H995   1.085       .  S
C981        C982   1.414   1_554  A
C981        C985   1.446       .  S
C982        C983   1.405       .  A
C983        C984   1.404       .  A
C983        H996   1.085       .  S
C984        C986   1.443       .  S
C985        N989   1.158       .  T
C986        N990   1.157       .  T
C987        N992   1.157       .  T
C988        N991   1.157       .  T
C997        C998   1.409       .  A
C997       C1002   1.396       .  A
C997       C1011   1.445       .  S
C998       C1003   1.483       .  S
C998        C999   1.403       .  A
C999       C1000   1.404       .  A
C999       H1018   1.085       .  S
C1000      C1001   1.415       .  A
C1000      C1012   1.443       .  S
C1001      C1002   1.407       .  A
C1002      H1017   1.085       .  S
C1003      C1004   1.402       .  A
C1003      C1008   1.410       .  A
C1004      C1005   1.404       .  A
C1004      H1019   1.085       .  S
C1005      C1006   1.417       .  A
C1005      C1009   1.444       .  S
C1006      C1007   1.405       .  A
C1007      C1008   1.397       .  A
C1007      H1020   1.085       .  S
C1008      C1010   1.445       .  S
C1009      N1013   1.157       .  T
C1010      N1014   1.157       .  T
C1011      N1016   1.157       .  T
C1012      N1015   1.157       .  T
C1021      C1022   1.409       .  A
C1021      C1026   1.404       .  A
C1021      C1035   1.444       .  S
C1022      C1027   1.487       .  S
C1022      C1023   1.401       .  A
C1023      C1024   1.400       .  A
C1023      H1042   1.085       .  S
C1024      C1025   1.419       .  A
C1024      C1036   1.444       .  S
C1025      C1026   1.410       .  A
C1026      H1041   1.084       .  S
C1027      C1028   1.405       .  A
C1027      C1032   1.409   1_556  A
C1028      C1029   1.405   1_655  A
C1028      H1043   1.085       .  S
C1029      C1030   1.415       .  A
C1029      C1033   1.443       .  S
C1030      C1031   1.405   1_556  A
C1031      C1032   1.398   1_455  A
C1031      H1044   1.085       .  S
C1032      C1034   1.444       .  S
C1033      N1037   1.157       .  T
C1034      N1038   1.157       .  T
C1035      N1040   1.157       .  T
C1036      N1039   1.157       .  T
C1045      C1046   1.407       .  A
C1045      C1050   1.396       .  A
C1045      C1059   1.445       .  S
C1046      C1051   1.478       .  S
C1046      C1047   1.401   1_556  A
C1047      C1048   1.403       .  A
C1047      H1066   1.085       .  S
C1048      C1049   1.416   1_554  A
C1048      C1060   1.443       .  S
C1049      C1050   1.407       .  A
C1050      H1065   1.085       .  S
C1051      C1052   1.401       .  A
C1051      C1056   1.407   1_556  A
C1052      C1053   1.403       .  A
C1052      H1067   1.085       .  S
C1053      C1054   1.417       .  A
C1053      C1057   1.444       .  S
C1054      C1055   1.406   1_556  A
C1055      C1056   1.397       .  A
C1055      H1068   1.085       .  S
C1056      C1058   1.445       .  S
C1057      N1061   1.157       .  T
C1058      N1062   1.157       .  T
C1059      N1064   1.157       .  T
C1060      N1063   1.157       .  T
C1069      C1070   1.409       .  A
C1069      C1074   1.397       .  A
C1069      C1083   1.445       .  S
C1070      C1075   1.484       .  S
C1070      C1071   1.403       .  A
C1071      C1072   1.405       .  A
C1071      H1090   1.084       .  S
C1072      C1073   1.416       .  A
C1072      C1084   1.444       .  S
C1073      C1074   1.405       .  A
C1074      H1089   1.085       .  S
C1075      C1076   1.400       .  A
C1075      C1080   1.408       .  A
C1076      C1077   1.399       .  A
C1076      H1091   1.085       .  S
C1077      C1078   1.417       .  A
C1077      C1081   1.444       .  S
C1078      C1079   1.408       .  A
C1079      C1080   1.405       .  A
C1079      H1092   1.084       .  S
C1080      C1082   1.443       .  S
C1081      N1085   1.157       .  T
C1082      N1086   1.157       .  T
C1083      N1088   1.157       .  T
C1084      N1087   1.157       .  T
C1093      C1094   1.408       .  A
C1093      C1098   1.396       .  A
C1093      C1107   1.445       .  S
C1094      C1099   1.477   1_556  S
C1094      C1095   1.401   1_556  A
C1095      C1096   1.400       .  A
C1095      H1114   1.085       .  S
C1096      C1097   1.416   1_554  A
C1096      C1108   1.444       .  S
C1097      C1098   1.406       .  A
C1098      H1113   1.085       .  S
C1099      C1100   1.400       .  A
C1099      C1104   1.409   1_554  A
C1100      C1101   1.396       .  A
C1100      H1115   1.085       .  S
C1101      C1102   1.414       .  A
C1101      C1105   1.445       .  S
C1102      C1103   1.405   1_554  A
C1103      C1104   1.400       .  A
C1103      H1116   1.085       .  S
C1104      C1106   1.444       .  S
C1105      N1109   1.157       .  T
C1106      N1110   1.157       .  T
C1107      N1112   1.157       .  T
C1108      N1111   1.157       .  T
C1117      C1118   1.406       .  A
C1117      C1122   1.396       .  A
C1117      C1131   1.444       .  S
C1118      C1123   1.474       .  S
C1118      C1119   1.400       .  A
C1119      C1120   1.400       .  A
C1119      H1138   1.085       .  S
C1120      C1121   1.417       .  A
C1120      C1132   1.444       .  S
C1121      C1122   1.406       .  A
C1122      H1137   1.084       .  S
C1123      C1124   1.399       .  A
C1123      C1128   1.408       .  A
C1124      C1125   1.397       .  A
C1124      H1139   1.085       .  S
C1125      C1126   1.413       .  A
C1125      C1129   1.445       .  S
C1126      C1127   1.404       .  A
C1127      C1128   1.399       .  A
C1127      H1140   1.085       .  S
C1128      C1130   1.444       .  S
C1129      N1133   1.157       .  T
C1130      N1134   1.157       .  T
C1131      N1136   1.157       .  T
C1132      N1135   1.157       .  T
C1141      C1142   1.410   1_554  A
C1141      C1146   1.400       .  A
C1141      C1155   1.444       .  S
C1142      C1147   1.486       .  S
C1142      C1143   1.404       .  A
C1143      C1144   1.400       .  A
C1143      H1162   1.085       .  S
C1144      C1145   1.413       .  A
C1144      C1156   1.444       .  S
C1145      C1146   1.407   1_556  A
C1146      H1161   1.085       .  S
C1147      C1148   1.405   1_556  A
C1147      C1152   1.409       .  A
C1148      C1149   1.407       .  A
C1148      H1163   1.085       .  S
C1149      C1150   1.416   1_554  A
C1149      C1153   1.443       .  S
C1150      C1151   1.406       .  A
C1151      C1152   1.392       .  A
C1151      H1164   1.085       .  S
C1152      C1154   1.446       .  S
C1153      N1157   1.157       .  T
C1154      N1158   1.157       .  T
C1155      N1160   1.157       .  T
C1156      N1159   1.157       .  T
C1165      C1166   1.409       .  A
C1165      C1170   1.403   1_565  A
C1165      C1179   1.443       .  S
C1166      C1171   1.482       .  S
C1166      C1167   1.399   1_565  A
C1167      C1168   1.395       .  A
C1167      H1186   1.085   1_545  S
C1168      C1169   1.420       .  A
C1168      C1180   1.445       .  S
C1169      C1170   1.408       .  A
C1170      H1185   1.084       .  S
C1171      C1172   1.404       .  A
C1171      C1176   1.409   1_556  A
C1172      C1173   1.403       .  A
C1172      H1187   1.085       .  S
C1173      C1174   1.415       .  A
C1173      C1177   1.444       .  S
C1174      C1175   1.404   1_556  A
C1175      C1176   1.394       .  A
C1175      H1188   1.085       .  S
C1176      C1178   1.445       .  S
C1177      N1181   1.157       .  T
C1178      N1182   1.157       .  T
C1179      N1184   1.157       .  T
C1180      N1183   1.157       .  T
C1189      C1190   1.401       .  A
C1189      C1194   1.401       .  A
C1189      C1203   1.445       .  S
C1190      C1195   1.492       .  S
C1190      C1191   1.395       .  A
C1191      C1192   1.407       .  A
C1191      H1210   1.085       .  S
C1192      C1193   1.435       .  A
C1192      C1204   1.440       .  S
C1193      C1194   1.427       .  A
C1194      H1209   1.077       .  S
C1195      C1196   1.404       .  A
C1195      C1200   1.411       .  A
C1196      C1197   1.405       .  A
C1196      H1211   1.085       .  S
C1197      C1198   1.415       .  A
C1197      C1201   1.443       .  S
C1198      C1199   1.406       .  A
C1199      C1200   1.400       .  A
C1199      H1212   1.085       .  S
C1200      C1202   1.444       .  S
C1201      N1205   1.157       .  T
C1202      N1206   1.157       .  T
C1203      N1208   1.157       .  T
C1204      N1207   1.157       .  T
C1213      C1214   1.408       .  A
C1213      C1218   1.396       .  A
C1213      C1227   1.442       .  S
C1214      C1219   1.486       .  S
C1214      C1215   1.402       .  A
C1215      C1216   1.407       .  A
C1215      H1234   1.085       .  S
C1216      C1217   1.420       .  A
C1216      C1228   1.443       .  S
C1217      C1218   1.406       .  A
C1218      H1233   1.084       .  S
C1219      C1220   1.395       .  A
C1219      C1224   1.404       .  A
C1220      C1221   1.401       .  A
C1220      H1235   1.085       .  S
C1221      C1222   1.433       .  A
C1221      C1225   1.442       .  S
C1222      C1223   1.421       .  A
C1223      C1224   1.402       .  A
C1223      H1236   1.080       .  S
C1224      C1226   1.444       .  S
C1225      N1229   1.157       .  T
C1226      N1230   1.157       .  T
C1227      N1232   1.156       .  T
C1228      N1231   1.157       .  T
C1237      C1238   1.407       .  A
C1237      C1242   1.399       .  A
C1237      C1251   1.445       .  S
C1238      C1243   1.488       .  S
C1238      C1239   1.396       .  A
C1239      C1240   1.403       .  A
C1239      H1258   1.085       .  S
C1240      C1241   1.432       .  A
C1240      C1252   1.442       .  S
C1241      C1242   1.419       .  A
C1242      H1257   1.080       .  S
C1243      C1244   1.401       .  A
C1243      C1248   1.401       .  A
C1244      C1245   1.407       .  A
C1244      H1259   1.086       .  S
C1245      C1246   1.431       .  A
C1245      C1249   1.441       .  S
C1246      C1247   1.423       .  A
C1247      C1248   1.395       .  A
C1247      H1260   1.084       .  S
C1248      C1250   1.444       .  S
C1249      N1253   1.158       .  T
C1250      N1254   1.157       .  T
C1251      N1256   1.157       .  T
C1252      N1255   1.157       .  T
C1261      C1262   1.408       .  A
C1261      C1266   1.402       .  A
C1261      C1275   1.445       .  S
C1262      C1267   1.494       .  S
C1262      C1263   1.396       .  A
C1263      C1264   1.402       .  A
C1263      H1282   1.086       .  S
C1264      C1265   1.435       .  A
C1264      C1276   1.443       .  S
C1265      C1266   1.422       .  A
C1266      H1281   1.080       .  S
C1267      C1268   1.405       .  A
C1267      C1272   1.411       .  A
C1268      C1269   1.403       .  A
C1268      H1283   1.085       .  S
C1269      C1270   1.417       .  A
C1269      C1273   1.444       .  S
C1270      C1271   1.408       .  A
C1271      C1272   1.402       .  A
C1271      H1284   1.084       .  S
C1272      C1274   1.444       .  S
C1273      N1277   1.158       .  T
C1274      N1278   1.157       .  T
C1275      N1280   1.157       .  T
C1276      N1279   1.157       .  T
C1285      C1286   1.410       .  A
C1285      C1290   1.402       .  A
C1285      C1299   1.444       .  S
C1286      C1291   1.481       .  S
C1286      C1287   1.400       .  A
C1287      C1288   1.398       .  A
C1287      H1306   1.085       .  S
C1288      C1289   1.414       .  A
C1288      C1300   1.444       .  S
C1289      C1290   1.407       .  A
C1290      H1305   1.085       .  S
C1291      C1292   1.395       .  A
C1291      C1296   1.401       .  A
C1292      C1293   1.403       .  A
C1292      H1307   1.086       .  S
C1293      C1294   1.437       .  A
C1293      C1297   1.442       .  S
C1294      C1295   1.423       .  A
C1295      C1296   1.395       .  A
C1295      H1308   1.083       .  S
C1296      C1298   1.444       .  S
C1297      N1301   1.158       .  T
C1298      N1302   1.157       .  T
C1299      N1304   1.157       .  T
C1300      N1303   1.157   1_554  T
C1309      C1310   1.402       .  A
C1309      C1314   1.397       .  A
C1309      C1323   1.445       .  S
C1310      C1315   1.492       .  S
C1310      C1311   1.400       .  A
C1311      C1312   1.412       .  A
C1311      H1330   1.085       .  S
C1312      C1313   1.436       .  A
C1312      C1324   1.441       .  S
C1313      C1314   1.422       .  A
C1314      H1329   1.082       .  S
C1315      C1316   1.396       .  A
C1315      C1320   1.404       .  A
C1316      C1317   1.403       .  A
C1316      H1331   1.086       .  S
C1317      C1318   1.437       .  A
C1317      C1321   1.443       .  S
C1318      C1319   1.422       .  A
C1319      C1320   1.404       .  A
C1319      H1332   1.084       .  S
C1320      C1322   1.443       .  S
C1321      N1325   1.158       .  T
C1322      N1326   1.157       .  T
C1323      N1328   1.157       .  T
C1324      N1327   1.158       .  T
C1333      C1334   1.404       .  A
C1333      C1338   1.399       .  A
C1333      C1347   1.445       .  S
C1334      C1339   1.486       .  S
C1334      C1335   1.395       .  A
C1335      C1336   1.403       .  A
C1335      H1354   1.085       .  S
C1336      C1337   1.432       .  A
C1336      C1348   1.441       .  S
C1337      C1338   1.422       .  A
C1338      H1353   1.081       .  S
C1339      C1340   1.404       .  A
C1339      C1344   1.408       .  A
C1340      C1341   1.405       .  A
C1340      H1355   1.085       .  S
C1341      C1342   1.415       .  A
C1341      C1345   1.444       .  S
C1342      C1343   1.406       .  A
C1343      C1344   1.397       .  A
C1343      H1356   1.085       .  S
C1344      C1346   1.444       .  S
C1345      N1349   1.157       .  T
C1346      N1350   1.157       .  T
C1347      N1352   1.157       .  T
C1348      N1351   1.157       .  T
C1357      C1358   1.404       .  A
C1357      C1362   1.402       .  A
C1357      C1371   1.444       .  S
C1358      C1363   1.485       .  S
C1358      C1359   1.393       .  A
C1359      C1360   1.401       .  A
C1359      H1378   1.086       .  S
C1360      C1361   1.435       .  A
C1360      C1372   1.443       .  S
C1361      C1362   1.421       .  A
C1362      H1377   1.080       .  S
C1363      C1364   1.402       .  A
C1363      C1368   1.410       .  A
C1364      C1365   1.405       .  A
C1364      H1379   1.085       .  S
C1365      C1366   1.416       .  A
C1365      C1369   1.444       .  S
C1366      C1367   1.406       .  A
C1367      C1368   1.400       .  A
C1367      H1380   1.085       .  S
C1368      C1370   1.445       .  S
C1369      N1373   1.157       .  T
C1370      N1374   1.157       .  T
C1371      N1376   1.157       .  T
C1372      N1375   1.158       .  T
C1381      C1382   1.403       .  A
C1381      C1386   1.400       .  A
C1381      C1395   1.444       .  S
C1382      C1387   1.485       .  S
C1382      C1383   1.397       .  A
C1383      C1384   1.404       .  A
C1383      H1402   1.085       .  S
C1384      C1385   1.437       .  A
C1384      C1396   1.446       .  S
C1385      C1386   1.420       .  A
C1386      H1401   1.079       .  S
C1387      C1388   1.400       .  A
C1387      C1392   1.407       .  A
C1388      C1389   1.401       .  A
C1388      H1403   1.085       .  S
C1389      C1390   1.420       .  A
C1389      C1393   1.444       .  S
C1390      C1391   1.410       .  A
C1391      C1392   1.405       .  A
C1391      H1404   1.084       .  S
C1392      C1394   1.443       .  S
C1393      N1397   1.157       .  T
C1394      N1398   1.157       .  T
C1395      N1400   1.157       .  T
C1396      N1399   1.158       .  T
C1405      C1406   1.409       .  A
C1405      C1410   1.407       .  A
C1405      C1419   1.443       .  S
C1406      C1411   1.490       .  S
C1406      C1407   1.402       .  A
C1407      C1408   1.398       .  A
C1407      H1426   1.085       .  S
C1408      C1409   1.419       .  A
C1408      C1420   1.445       .  S
C1409      C1410   1.410       .  A
C1410      H1425   1.084       .  S
C1411      C1412   1.401       .  A
C1411      C1416   1.400       .  A
C1412      C1413   1.411       .  A
C1412      H1427   1.085       .  S
C1413      C1414   1.437       .  A
C1413      C1417   1.447       .  S
C1414      C1415   1.424       .  A
C1415      C1416   1.391       .  A
C1415      H1428   1.073       .  S
C1416      C1418   1.448       .  S
C1417      N1421   1.157       .  T
C1418      N1422   1.157       .  T
C1419      N1424   1.157       .  T
C1420      N1423   1.158       .  T
C1429      C1430   1.409       .  A
C1429      C1434   1.399       .  A
C1429      C1443   1.446       .  S
C1430      C1435   1.506       .  S
C1430      C1431   1.405       .  A
C1431      C1432   1.408       .  A
C1431      H1450   1.084       .  S
C1432      C1433   1.429       .  A
C1432      C1444   1.444       .  S
C1433      C1434   1.417       .  A
C1434      H1449   1.079       .  S
C1435      C1436   1.402       .  A
C1435      C1440   1.411       .  A
C1436      C1437   1.407       .  A
C1436      H1451   1.084       .  S
C1437      C1438   1.437       .  A
C1437      C1441   1.446       .  S
C1438      C1439   1.418       .  A
C1439      C1440   1.400       .  A
C1439      H1452   1.072       .  S
C1440      C1442   1.446       .  S
C1441      N1445   1.157       .  T
C1442      N1446   1.157       .  T
C1443      N1448   1.157       .  T
C1444      N1447   1.157       .  T
C1453      C1454   1.413       .  A
C1453      C1458   1.403       .  A
C1453      C1467   1.444       .  S
C1454      C1459   1.517       .  S
C1454      C1455   1.405       .  A
C1455      C1456   1.406       .  A
C1455      H1474   1.084       .  S
C1456      C1457   1.433       .  A
C1456      C1468   1.441       .  S
C1457      C1458   1.423       .  A
C1458      H1473   1.084       .  S
C1459      C1460   1.403       .  A
C1459      C1464   1.416       .  A
C1460      C1461   1.404       .  A
C1460      H1475   1.091       .  S
C1461      C1462   1.436       .  A
C1461      C1465   1.444       .  S
C1462      C1463   1.417       .  A
C1463      C1464   1.400       .  A
C1463      H1476   1.097       .  S
C1464      C1466   1.445       .  S
C1465      N1469   1.157       .  T
C1466      N1470   1.157       .  T
C1467      N1472   1.157       .  T
C1468      N1471   1.158       .  T
C1477      C1478   1.406       .  A
C1477      C1482   1.401       .  A
C1477      C1491   1.445       .  S
C1478      C1483   1.488       .  S
C1478      C1479   1.395       .  A
C1479      C1480   1.403       .  A
C1479      H1498   1.085       .  S
C1480      C1481   1.436       .  A
C1480      C1492   1.444       .  S
C1481      C1482   1.419       .  A
C1482      H1497   1.078       .  S
C1483      C1484   1.402       .  A
C1483      C1488   1.408       .  A
C1484      C1485   1.402       .  A
C1484      H1499   1.085       .  S
C1485      C1486   1.418       .  A
C1485      C1489   1.444       .  S
C1486      C1487   1.409       .  A
C1487      C1488   1.402       .  A
C1487      H1500   1.084       .  S
C1488      C1490   1.443       .  S
C1489      N1493   1.157       .  T
C1490      N1494   1.157       .  T
C1491      N1496   1.157       .  T
C1492      N1495   1.157       .  T
C1501      C1502   1.413       .  A
C1501      C1506   1.402       .  A
C1501      C1515   1.444       .  S
C1502      C1507   1.488       .  S
C1502      C1503   1.405       .  A
C1503      C1504   1.399       .  A
C1503      H1522   1.085       .  S
C1504      C1505   1.411       .  A
C1504      C1516   1.444       .  S
C1505      C1506   1.405       .  A
C1506      H1521   1.085       .  S
C1507      C1508   1.394       .  A
C1507      C1512   1.404       .  A
C1508      C1509   1.395       .  A
C1508      H1523   1.087       .  S
C1509      C1510   1.438       .  A
C1509      C1513   1.443       .  S
C1510      C1511   1.424       .  A
C1511      C1512   1.403       .  A
C1511      H1524   1.085       .  S
C1512      C1514   1.443       .  S
C1513      N1517   1.158       .  T
C1514      N1518   1.157       .  T
C1515      N1520   1.157       .  T
C1516      N1519   1.157       .  T
C1525      C1526   1.405       .  A
C1525      C1530   1.401       .  A
C1525      C1539   1.444       .  S
C1526      C1531   1.489       .  S
C1526      C1527   1.394       .  A
C1527      C1528   1.400       .  A
C1527      H1546   1.086       .  S
C1528      C1529   1.441       .  A
C1528      C1540   1.445       .  S
C1529      C1530   1.420       .  A
C1530      H1545   1.084       .  S
C1531      C1532   1.396       .  A
C1531      C1536   1.404       .  A
C1532      C1533   1.402       .  A
C1532      H1547   1.085       .  S
C1533      C1534   1.439       .  A
C1533      C1537   1.444       .  S
C1534      C1535   1.423       .  A
C1535      C1536   1.400       .  A
C1535      H1548   1.083       .  S
C1536      C1538   1.444       .  S
C1537      N1541   1.158       .  T
C1538      N1542   1.157       .  T
C1539      N1544   1.157       .  T
C1540      N1543   1.158       .  T
C1549      C1550   1.418       .  A
C1549      C1554   1.400       .  A
C1549      C1563   1.445       .  S
C1550      C1555   1.511       .  S
C1550      C1551   1.402       .  A
C1551      C1552   1.403       .  A
C1551      H1570   1.083       .  S
C1552      C1553   1.438       .  A
C1552      C1564   1.445       .  S
C1553      C1554   1.413       .  A
C1554      H1569   1.085       .  S
C1555      C1556   1.400       .  A
C1555      C1560   1.419       .  A
C1556      C1557   1.397       .  A
C1556      H1571   1.083       .  S
C1557      C1558   1.434       .  A
C1557      C1561   1.446       .  S
C1558      C1559   1.416       .  A
C1559      C1560   1.405       .  A
C1559      H1572   1.076       .  S
C1560      C1562   1.445       .  S
C1561      N1565   1.158       .  T
C1562      N1566   1.157       .  T
C1563      N1568   1.157       .  T
C1564      N1567   1.158       .  T
C1573      C1574   1.402       .  A
C1573      C1578   1.396       .  A
C1573      C1587   1.445       .  S
C1574      C1579   1.478       .  S
C1574      C1575   1.394       .  A
C1575      C1576   1.401       .  A
C1575      H1594   1.085       .  S
C1576      C1577   1.432       .  A
C1576      C1588   1.443       .  S
C1577      C1578   1.421       .  A
C1578      H1593   1.079       .  S
C1579      C1580   1.400       .  A
C1579      C1584   1.407       .  A
C1580      C1581   1.396       .  A
C1580      H1595   1.085       .  S
C1581      C1582   1.417       .  A
C1581      C1585   1.445       .  S
C1582      C1583   1.408       .  A
C1583      C1584   1.402       .  A
C1583      H1596   1.084       .  S
C1584      C1586   1.443       .  S
C1585      N1589   1.157       .  T
C1586      N1590   1.157       .  T
C1587      N1592   1.157       .  T
C1588      N1591   1.157       .  T
C1597      C1598   1.402       .  A
C1597      C1602   1.393       .  A
C1597      C1611   1.446       .  S
C1598      C1603   1.479       .  S
C1598      C1599   1.397       .  A
C1599      C1600   1.401       .  A
C1599      H1618   1.085       .  S
C1600      C1601   1.432       .  A
C1600      C1612   1.446       .  S
C1601      C1602   1.419       .  A
C1602      H1617   1.074       .  S
C1603      C1604   1.401       .  A
C1603      C1608   1.407       .  A
C1604      C1605   1.395       .  A
C1604      H1619   1.085       .  S
C1605      C1606   1.415       .  A
C1605      C1609   1.445       .  S
C1606      C1607   1.408       .  A
C1607      C1608   1.401       .  A
C1607      H1620   1.084       .  S
C1608      C1610   1.444       .  S
C1609      N1613   1.157       .  T
C1610      N1614   1.157       .  T
C1611      N1616   1.157       .  T
C1612      N1615   1.157       .  T
C1621      C1622   1.409       .  A
C1621      C1626   1.397       .  A
C1621      C1635   1.445       .  S
C1622      C1627   1.484       .  S
C1622      C1623   1.403       .  A
C1623      C1624   1.404       .  A
C1623      H1642   1.085       .  S
C1624      C1625   1.415       .  A
C1624      C1636   1.443       .  S
C1625      C1626   1.405       .  A
C1626      H1641   1.085       .  S
C1627      C1628   1.397       .  A
C1627      C1632   1.401       .  A
C1628      C1629   1.406       .  A
C1628      H1643   1.085       .  S
C1629      C1630   1.435       .  A
C1629      C1633   1.445       .  S
C1630      C1631   1.424       .  A
C1631      C1632   1.393       .  A
C1631      H1644   1.075       .  S
C1632      C1634   1.447       .  S
C1633      N1637   1.157       .  T
C1634      N1638   1.157       .  T
C1635      N1640   1.157       .  T
C1636      N1639   1.157       .  T
C1645      C1646   1.401       .  A
C1645      C1650   1.396       .  A
C1645      C1659   1.445       .  S
C1646      C1651   1.477       .  S
C1646      C1647   1.396       .  A
C1647      C1648   1.401       .  A
C1647      H1666   1.085       .  S
C1648      C1649   1.434       .  A
C1648      C1660   1.446       .  S
C1649      C1650   1.420       .  A
C1650      H1665   1.079       .  S
C1651      C1652   1.400       .  A
C1651      C1656   1.407       .  A
C1652      C1653   1.403       .  A
C1652      H1667   1.085       .  S
C1653      C1654   1.419       .  A
C1653      C1657   1.444       .  S
C1654      C1655   1.405       .  A
C1655      C1656   1.395       .  A
C1655      H1668   1.085       .  S
C1656      C1658   1.445       .  S
C1657      N1661   1.157       .  T
C1658      N1662   1.157       .  T
C1659      N1664   1.157       .  T
C1660      N1663   1.157       .  T
C1669      C1670   1.404       .  A
C1669      C1674   1.395       .  A
C1669      C1683   1.445       .  S
C1670      C1675   1.489       .  S
C1670      C1671   1.398       .  A
C1671      C1672   1.407       .  A
C1671      H1690   1.085       .  S
C1672      C1673   1.436       .  A
C1672      C1684   1.442       .  S
C1673      C1674   1.420       .  A
C1674      H1689   1.084       .  S
C1675      C1676   1.396       .  A
C1675      C1680   1.404       .  A
C1676      C1677   1.401       .  A
C1676      H1691   1.086       .  S
C1677      C1678   1.437       .  A
C1677      C1681   1.444       .  S
C1678      C1679   1.421       .  A
C1679      C1680   1.401       .  A
C1679      H1692   1.084       .  S
C1680      C1682   1.444       .  S
C1681      N1685   1.158       .  T
C1682      N1686   1.157       .  T
C1683      N1688   1.157       .  T
C1684      N1687   1.158       .  T
C1693      C1694   1.408       .  A
C1693      C1698   1.399       .  A
C1693      C1707   1.445       .  S
C1694      C1699   1.482       .  S
C1694      C1695   1.400       .  A
C1695      C1696   1.401       .  A
C1695      H1714   1.085       .  S
C1696      C1697   1.418       .  A
C1696      C1708   1.443       .  S
C1697      C1698   1.408       .  A
C1698      H1713   1.084       .  S
C1699      C1700   1.396       .  A
C1699      C1704   1.402       .  A
C1700      C1701   1.404       .  A
C1700      H1715   1.086       .  S
C1701      C1702   1.435       .  A
C1701      C1705   1.442       .  S
C1702      C1703   1.422       .  A
C1703      C1704   1.392       .  A
C1703      H1716   1.084       .  S
C1704      C1706   1.445       .  S
C1705      N1709   1.158       .  T
C1706      N1710   1.157       .  T
C1707      N1712   1.157       .  T
C1708      N1711   1.157   1_556  T
C1717      C1718   1.404       .  A
C1717      C1722   1.398       .  A
C1717      C1731   1.445       .  S
C1718      C1723   1.485       .  S
C1718      C1719   1.395       .  A
C1719      C1720   1.402       .  A
C1719      H1738   1.085       .  S
C1720      C1721   1.435       .  A
C1720      C1732   1.443       .  S
C1721      C1722   1.422       .  A
C1722      H1737   1.079       .  S
C1723      C1724   1.403       .  A
C1723      C1728   1.408       .  A
C1724      C1725   1.403       .  A
C1724      H1739   1.085       .  S
C1725      C1726   1.418       .  A
C1725      C1729   1.444       .  S
C1726      C1727   1.407       .  A
C1727      C1728   1.398       .  A
C1727      H1740   1.084       .  S
C1728      C1730   1.444       .  S
C1729      N1733   1.158       .  T
C1730      N1734   1.157       .  T
C1731      N1736   1.157       .  T
C1732      N1735   1.157       .  T
C1741      C1742   1.408       .  A
C1741      C1746   1.399       .  A
C1741      C1755   1.443       .  S
C1742      C1747   1.480       .  S
C1742      C1743   1.400       .  A
C1743      C1744   1.402       .  A
C1743      H1762   1.085       .  S
C1744      C1745   1.417       .  A
C1744      C1756   1.444       .  S
C1745      C1746   1.406       .  A
C1746      H1761   1.085       .  S
C1747      C1748   1.395       .  A
C1747      C1752   1.401       .  A
C1748      C1749   1.400       .  A
C1748      H1763   1.086       .  S
C1749      C1750   1.434       .  A
C1749      C1753   1.444       .  S
C1750      C1751   1.420       .  A
C1751      C1752   1.402       .  A
C1751      H1764   1.081       .  S
C1752      C1754   1.443       .  S
C1753      N1757   1.158       .  T
C1754      N1758   1.157       .  T
C1755      N1760   1.157       .  T
C1756      N1759   1.157       .  T
C1765      C1766   1.401       .  A
C1765      C1770   1.397       .  A
C1765      C1779   1.445       .  S
C1766      C1771   1.485       .  S
C1766      C1767   1.397       .  A
C1767      C1768   1.407       .  A
C1767      H1786   1.085       .  S
C1768      C1769   1.436       .  A
C1768      C1780   1.443       .  S
C1769      C1770   1.420       .  A
C1770      H1785   1.081       .  S
C1771      C1772   1.403       .  A
C1771      C1776   1.408       .  A
C1772      C1773   1.403       .  A
C1772      H1787   1.085       .  S
C1773      C1774   1.415       .  A
C1773      C1777   1.444       .  S
C1774      C1775   1.408       .  A
C1775      C1776   1.402       .  A
C1775      H1788   1.085       .  S
C1776      C1778   1.443       .  S
C1777      N1781   1.157       .  T
C1778      N1782   1.157       .  T
C1779      N1784   1.157       .  T
C1780      N1783   1.158       .  T
C1789      C1790   1.413       .  A
C1789      C1794   1.399       .  A
C1789      C1803   1.446       .  S
C1790      C1795   1.505       .  S
C1790      C1791   1.403       .  A
C1791      C1792   1.399       .  A
C1791      H1810   1.083       .  S
C1792      C1793   1.432       .  A
C1792      C1804   1.445       .  S
C1793      C1794   1.417       .  A
C1794      H1809   1.073       .  S
C1795      C1796   1.403       .  A
C1795      C1800   1.411       .  A
C1796      C1797   1.401       .  A
C1796      H1811   1.083       .  S
C1797      C1798   1.431       .  A
C1797      C1801   1.440       .  S
C1798      C1799   1.420       .  A
C1799      C1800   1.397       .  A
C1799      H1812   1.079       .  S
C1800      C1802   1.446       .  S
C1801      N1805   1.157       .  T
C1802      N1806   1.157       .  T
C1803      N1808   1.157       .  T
C1804      N1807   1.157       .  T
C1813      C1814   1.408       .  A
C1813      C1818   1.392       .  A
C1813      C1827   1.447       .  S
C1814      C1819   1.491       .  S
C1814      C1815   1.401       .  A
C1815      C1816   1.404       .  A
C1815      H1834   1.085       .  S
C1816      C1817   1.432       .  A
C1816      C1828   1.445       .  S
C1817      C1818   1.417       .  A
C1818      H1833   1.075       .  S
C1819      C1820   1.401       .  A
C1819      C1824   1.407       .  A
C1820      C1821   1.403       .  A
C1820      H1835   1.084       .  S
C1821      C1822   1.428       .  A
C1821      C1825   1.442       .  S
C1822      C1823   1.418       .  A
C1823      C1824   1.395       .  A
C1823      H1836   1.082       .  S
C1824      C1826   1.446       .  S
C1825      N1829   1.157       .  T
C1826      N1830   1.157       .  T
C1827      N1832   1.157       .  T
C1828      N1831   1.157       .  T
C1837      C1838   1.405       .  A
C1837      C1842   1.398       .  A
C1837      C1851   1.445       .  S
C1838      C1843   1.483       .  S
C1838      C1839   1.397       .  A
C1839      C1840   1.399       .  A
C1839      H1858   1.085       .  S
C1840      C1841   1.433       .  A
C1840      C1852   1.446       .  S
C1841      C1842   1.420       .  A
C1842      H1857   1.078       .  S
C1843      C1844   1.400       .  A
C1843      C1848   1.408       .  A
C1844      C1845   1.398       .  A
C1844      H1859   1.085       .  S
C1845      C1846   1.419       .  A
C1845      C1849   1.444       .  S
C1846      C1847   1.408       .  A
C1847      C1848   1.401       .  A
C1847      H1860   1.084       .  S
C1848      C1850   1.444       .  S
C1849      N1853   1.157       .  T
C1850      N1854   1.157       .  T
C1851      N1856   1.157       .  T
C1852      N1855   1.157       .  T
C1861      C1862   1.404       .  A
C1861      C1866   1.402       .  A
C1861      C1875   1.444       .  S
C1862      C1867   1.484       .  S
C1862      C1863   1.394       .  A
C1863      C1864   1.396       .  A
C1863      H1882   1.086       .  S
C1864      C1865   1.435       .  A
C1864      C1876   1.446       .  S
C1865      C1866   1.421       .  A
C1866      H1881   1.078       .  S
C1867      C1868   1.403       .  A
C1867      C1872   1.411       .  A
C1868      C1869   1.399       .  A
C1868      H1883   1.085       .  S
C1869      C1870   1.413       .  A
C1869      C1873   1.444       .  S
C1870      C1871   1.406       .  A
C1871      C1872   1.401       .  A
C1871      H1884   1.085       .  S
C1872      C1874   1.444       .  S
C1873      N1877   1.157       .  T
C1874      N1878   1.157       .  T
C1875      N1880   1.157       .  T
C1876      N1879   1.157       .  T
C1885      C1886   1.403       .  A
C1885      C1890   1.402       .  A
C1885      C1899   1.443       .  S
C1886      C1891   1.483       .  S
C1886      C1887   1.395       .  A
C1887      C1888   1.395       .  A
C1887      H1906   1.086       .  S
C1888      C1889   1.430       .  A
C1888      C1900   1.442       .  S
C1889      C1890   1.422       .  A
C1890      H1905   1.080       .  S
C1891      C1892   1.401       .  A
C1891      C1896   1.410       .  A
C1892      C1893   1.404       .  A
C1892      H1907   1.085       .  S
C1893      C1894   1.419       .  A
C1893      C1897   1.443       .  S
C1894      C1895   1.406       .  A
C1895      C1896   1.395       .  A
C1895      H1908   1.084       .  S
C1896      C1898   1.446       .  S
C1897      N1901   1.157   1_556  T
C1898      N1902   1.157       .  T
C1899      N1904   1.157       .  T
C1900      N1903   1.157       .  T
C1909      C1910   1.412       .  A
C1909      C1914   1.408       .  A
C1909      C1923   1.443       .  S
C1910      C1915   1.490       .  S
C1910      C1911   1.401       .  A
C1911      C1912   1.397       .  A
C1911      H1930   1.085       .  S
C1912      C1913   1.416       .  A
C1912      C1924   1.445       .  S
C1913      C1914   1.408       .  A
C1914      H1929   1.084       .  S
C1915      C1916   1.400       .  A
C1915      C1920   1.404       .  A
C1916      C1917   1.408       .  A
C1916      H1931   1.085       .  S
C1917      C1918   1.432       .  A
C1917      C1921   1.444       .  S
C1918      C1919   1.420       .  A
C1919      C1920   1.396       .  A
C1919      H1932   1.078       .  S
C1920      C1922   1.446       .  S
C1921      N1925   1.157       .  T
C1922      N1926   1.157       .  T
C1923      N1928   1.157       .  T
C1924      N1927   1.157       .  T
C1933      C1934   1.401       .  A
C1933      C1938   1.399       .  A
C1933      C1947   1.445       .  S
C1934      C1939   1.481       .  S
C1934      C1935   1.394       .  A
C1935      C1936   1.401       .  A
C1935      H1954   1.085       .  S
C1936      C1937   1.433       .  A
C1936      C1948   1.442       .  S
C1937      C1938   1.421       .  A
C1938      H1953   1.079       .  S
C1939      C1940   1.396       .  A
C1939      C1944   1.401       .  A
C1940      C1941   1.400       .  A
C1940      H1955   1.085       .  S
C1941      C1942   1.433       .  A
C1941      C1945   1.445       .  S
C1942      C1943   1.422       .  A
C1943      C1944   1.397       .  A
C1943      H1956   1.079       .  S
C1944      C1946   1.445       .  S
C1945      N1949   1.158       .  T
C1946      N1950   1.157       .  T
C1947      N1952   1.157       .  T
C1948      N1951   1.157       .  T
C1957      C1958   1.407       .  A
C1957      C1962   1.400       .  A
C1957      C1971   1.444       .  S
C1958      C1963   1.487       .  S
C1958      C1959   1.396       .  A
C1959      C1960   1.397       .  A
C1959      H1978   1.086       .  S
C1960      C1961   1.434       .  A
C1960      C1972   1.444       .  S
C1961      C1962   1.419       .  A
C1962      H1977   1.084       .  S
C1963      C1964   1.399       .  A
C1963      C1968   1.405       .  A
C1964      C1965   1.400       .  A
C1964      H1979   1.085       .  S
C1965      C1966   1.431       .  A
C1965      C1969   1.446       .  S
C1966      C1967   1.420       .  A
C1967      C1968   1.397       .  A
C1967      H1980   1.077       .  S
C1968      C1970   1.446       .  S
C1969      N1973   1.157       .  T
C1970      N1974   1.157       .  T
C1971      N1976   1.157       .  T
C1972      N1975   1.158       .  T
C1981      C1982   1.401       .  A
C1981      C1986   1.396       .  A
C1981      C1995   1.444       .  S
C1982      C1987   1.485       .  S
C1982      C1983   1.397       .  A
C1983      C1984   1.404       .  A
C1983      H2002   1.086       .  S
C1984      C1985   1.435       .  A
C1984      C1996   1.442       .  S
C1985      C1986   1.422       .  A
C1986      H2001   1.084       .  S
C1987      C1988   1.397       .  A
C1987      C1992   1.404       .  A
C1988      C1989   1.404       .  A
C1988      H2003   1.085       .  S
C1989      C1990   1.430       .  A
C1989      C1993   1.442       .  S
C1990      C1991   1.420       .  A
C1991      C1992   1.397       .  A
C1991      H2004   1.080       .  S
C1992      C1994   1.445       .  S
C1993      N1997   1.157       .  T
C1994      N1998   1.157       .  T
C1995      N2000   1.157       .  T
C1996      N1999   1.158       .  T
C2005      C2006   1.405       .  A
C2005      C2010   1.403       .  A
C2005      C2019   1.444       .  S
C2006      C2011   1.487       .  S
C2006      C2007   1.396       .  A
C2007      C2008   1.396       .  A
C2007      H2026   1.086       .  S
C2008      C2009   1.433       .  A
C2008      C2020   1.446       .  S
C2009      C2010   1.423       .  A
C2010      H2025   1.079       .  S
C2011      C2012   1.403       .  A
C2011      C2016   1.411       .  A
C2012      C2013   1.399       .  A
C2012      H2027   1.085       .  S
C2013      C2014   1.415       .  A
C2013      C2017   1.444       .  S
C2014      C2015   1.407       .  A
C2015      C2016   1.403       .  A
C2015      H2028   1.085       .  S
C2016      C2018   1.444       .  S
C2017      N2021   1.157       .  T
C2018      N2022   1.157       .  T
C2019      N2024   1.157       .  T
C2020      N2023   1.157       .  T
C2029      C2030   1.404       .  A
C2029      C2034   1.398       .  A
C2029      C2043   1.445       .  S
C2030      C2035   1.483       .  S
C2030      C2031   1.396       .  A
C2031      C2032   1.400       .  A
C2031      H2050   1.085       .  S
C2032      C2033   1.434       .  A
C2032      C2044   1.445       .  S
C2033      C2034   1.419       .  A
C2034      H2049   1.076       .  S
C2035      C2036   1.400       .  A
C2035      C2040   1.409       .  A
C2036      C2037   1.399       .  A
C2036      H2051   1.085       .  S
C2037      C2038   1.418       .  A
C2037      C2041   1.444       .  S
C2038      C2039   1.409       .  A
C2039      C2040   1.401       .  A
C2039      H2052   1.084       .  S
C2040      C2042   1.444       .  S
C2041      N2045   1.157       .  T
C2042      N2046   1.157       .  T
C2043      N2048   1.157       .  T
C2044      N2047   1.158       .  T
