geometry optimzed in LAMMPS
_audit_creation_date              2020-11-30 
_audit_creation_method            'lammps2cif' 
_symmetry_space_group_name_H-M    'P1' 
_symmetry_Int_Tables_number       1 
_symmetry_cell_setting            triclinic 
loop_ 
_symmetry_equiv_pos_as_xyz 
  x,y,z 
_cell_length_a                    27.33566416 
_cell_length_b                    42.74725517022195 
_cell_length_c                    32.508056535750924 
_cell_angle_alpha                 89.99821641022591 
_cell_angle_beta                  90.00000160388424 
_cell_angle_gamma                 90.00018463158854 
loop_ 
_atom_site_label 
_atom_site_type_symbol 
_atom_site_fract_x 
_atom_site_fract_y 
_atom_site_fract_z 
_atom_site_charge 
O1          O  0.29055494  0.21652984  0.04559089    -0.70800
O2          O  0.29096893  0.28297119  0.29103655    -0.71800
O3          O  0.29082105  0.28363197  0.04426482    -0.60400
O4          O  0.29128865  0.21587023  0.29259459    -0.68800
O5          O  0.21015691  0.21587208  0.29249476    -0.68300
O6          O  0.20968663  0.28368354  0.04417634    -0.59600
O7          O  0.20982624  0.28290307  0.29102360    -0.72100
O8          O  0.20940346  0.21659790  0.04552493    -0.70900
Cu9        Cu  0.29380868  0.25007430  0.33543418     1.04600
Cu10       Cu  0.20685471  0.24956352  0.00133240     1.04300
C11         C  0.24993885  0.20585483  0.05914689     0.95400
C12         C  0.25037172  0.29362389  0.27738499     0.94600
C13         C  0.25024644  0.29489517  0.05713440     0.86700
C14         C  0.25074249  0.20467323  0.27957504     0.93000
O15         O  0.04121841  0.46737968  0.04449916    -0.70800
O16         O  0.03993666  0.03445708  0.29100201    -0.71800
O17         O  0.04116761  0.03255464  0.04525498    -0.60400
O18         O  0.04058392  0.46589821  0.29192602    -0.68800
O19         O  0.45942597  0.46593608  0.29136769    -0.68300
O20         O  0.45908791  0.03276928  0.04432484    -0.59600
O21         O  0.46018381  0.03466338  0.29083960    -0.72100
O22         O  0.45881860  0.46648289  0.04335697    -0.70900
Cu23       Cu  0.04437314  0.49950768  0.99904818     1.04600
Cu24       Cu  0.45581603  0.49925797  0.99863862     1.04300
C25         C  0.00054139  0.45704096  0.05843899     0.95400
C26         C  0.99927100  0.04582718  0.27850803     0.94600
C27         C  0.00067026  0.04312323  0.05926147     0.86700
C28         C  0.00010167  0.45451753  0.27906427     0.93000
C29         C  0.45069875  0.12239203  0.16885241     0.32200
C30         C  0.04934680  0.12267620  0.16973944     0.32200
C31         C  0.47474173  0.15427644  0.16244354    -0.04000
C32         C  0.47480672  0.11026557  0.20858013    -0.04800
C33         C  0.47437334  0.10203283  0.13542761    -0.04700
C34         C  0.02521432  0.15458722  0.16364661    -0.04000
C35         C  0.02520599  0.11033582  0.20932663    -0.04800
C36         C  0.02576874  0.10238134  0.13612156    -0.04700
C37         C  0.04022800  0.18526770  0.16036062    -0.30100
N38         N  0.99976661  0.20352487  0.15782407     0.16400
C39         C  0.45964834  0.18491048  0.15893035    -0.30100
H40         H  0.42231620  0.19336543  0.15951328     0.18400
C41         C  0.03938408  0.08621698  0.23501121    -0.29000
N42         N  0.99916683  0.07214803  0.25088690     0.15200
C43         C  0.46065513  0.08634421  0.23461454    -0.29000
C44         C  0.04097244  0.08047155  0.10768550    -0.29300
N45         N  0.00068903  0.06732913  0.09008994     0.15700
H46         H  0.07842018  0.07383536  0.10129878     0.18300
C47         C  0.45922672  0.08042992  0.10665834    -0.29300
H48         H  0.42179573  0.07387949  0.10004558     0.18300
H49         H  0.42365159  0.07779922  0.23844254     0.18300
H50         H  0.07754694  0.19374948  0.16084223     0.18400
H51         H  0.07640985  0.07769966  0.23879673     0.18300
C52         C  0.45050821  0.37781528  0.16875479     0.32200
C53         C  0.04954704  0.37809395  0.16897861     0.32200
C54         C  0.47475016  0.34590014  0.16334457    -0.04000
C55         C  0.47449699  0.39777716  0.13513611    -0.04800
C56         C  0.47402562  0.39052008  0.20844067    -0.05300
C57         C  0.02524804  0.34625244  0.16298882    -0.04000
C58         C  0.02549627  0.39839746  0.13575378    -0.04800
C59         C  0.02606636  0.39045874  0.20890770    -0.04700
C60         C  0.04021444  0.31561000  0.15917179    -0.30100
N61         N  0.99972605  0.29736353  0.15700590     0.16400
C62         C  0.45973185  0.31524646  0.15994426    -0.30100
H63         H  0.42239124  0.30679389  0.15987297     0.18400
C64         C  0.04060646  0.41997801  0.10698363    -0.29000
N65         N  0.00028761  0.43315568  0.08961508     0.15200
C66         C  0.45936658  0.41912395  0.10604322    -0.29000
C67         C  0.04040822  0.41458206  0.23463465    -0.29300
N68         N  0.00025028  0.42835527  0.25115848     0.15700
H69         H  0.07738885  0.42326433  0.23808289     0.18300
C70         C  0.45963739  0.41465475  0.23408927    -0.29300
H71         H  0.42262839  0.42326936  0.23761010     0.18300
H72         H  0.42191498  0.42548660  0.09919767     0.18300
H73         H  0.07753907  0.30713098  0.15918099     0.18400
H74         H  0.07806001  0.42631386  0.10010200     0.18300
C75         C  0.29957481  0.37208732  0.16655921     0.32200
C76         C  0.20062505  0.37204293  0.16657186     0.32200
C77         C  0.27540860  0.40406949  0.17137149    -0.04000
C78         C  0.27590403  0.35895849  0.12718133    -0.04800
C79         C  0.27560087  0.35257718  0.20060735    -0.04700
C80         C  0.22475997  0.40404464  0.17137532    -0.04000
C81         C  0.22435086  0.35894024  0.12717212    -0.04800
C82         C  0.22470458  0.35254332  0.20062459    -0.04700
C83         C  0.20962609  0.43470427  0.17409366    -0.30100
N84         N  0.25003089  0.45304238  0.17573920     0.16400
C85         C  0.29048076  0.43474313  0.17409421    -0.30100
H86         H  0.32782822  0.44318163  0.17382823     0.18400
C87         C  0.21000725  0.33479689  0.10154773    -0.29000
N88         N  0.25021318  0.32091777  0.08525389     0.15200
C89         C  0.29036076  0.33482781  0.10158191    -0.29000
C90         C  0.20982577  0.33091918  0.22943063    -0.29300
N91         N  0.25029288  0.31793564  0.24683643     0.15700
H92         H  0.17246619  0.32418520  0.23600002     0.18300
C93         C  0.29065855  0.33099514  0.22939381    -0.29300
H94         H  0.32806534  0.32433872  0.23591934     0.18300
H95         H  0.32742208  0.32633854  0.09791584     0.18300
H96         H  0.17225989  0.44310784  0.17382527     0.18400
H97         H  0.17297037  0.32627893  0.09783516     0.18300
C98         C  0.29957579  0.12753371  0.16993269     0.32200
C99         C  0.20058465  0.12766828  0.17033636     0.32200
C100        C  0.27529665  0.09557383  0.16518901    -0.04000
C101        C  0.27612962  0.14068455  0.20934827    -0.04800
C102        C  0.27541936  0.14702867  0.13593752    -0.04700
C103        C  0.22460819  0.09563227  0.16540479    -0.04000
C104        C  0.22461605  0.14073899  0.20955192    -0.04800
C105        C  0.22449334  0.14711544  0.13613729    -0.04700
C106        C  0.20942163  0.06502545  0.16200001    -0.30100
N107        N  0.24981411  0.04671148  0.15968952     0.16400
C108        C  0.29030325  0.06495075  0.16163017    -0.30100
H109        H  0.32764606  0.05650870  0.16115410     0.18400
C110        C  0.21042146  0.16487704  0.23518800    -0.29000
N111        N  0.25069961  0.17872599  0.25135487     0.15200
C112        C  0.29075839  0.16480892  0.23489091    -0.29000
C113        C  0.20947834  0.16864818  0.10726391    -0.29300
N114        N  0.24988685  0.18153339  0.08964631     0.15700
H115        H  0.17209724  0.17541001  0.10081607     0.18300
C116        C  0.29033414  0.16848351  0.10696279    -0.29300
H117        H  0.32771677  0.17508316  0.10023532     0.18300
H118        H  0.32784616  0.17327114  0.23844947     0.18300
H119        H  0.17203924  0.05664854  0.16187226     0.18400
H120        H  0.17341036  0.17340301  0.23902199     0.18300
C121        C  0.24998405  0.48582538  0.17606503    -0.11100
C122        C  0.24977915  0.01397499  0.15765380    -0.12700
C123        C  0.35313398  0.37353945  0.16710374    -0.11100
C124        C  0.39695657  0.37628944  0.16816283    -0.12700
C125        C  0.14700202  0.37354725  0.16714427    -0.11100
C126        C  0.10316611  0.37646727  0.16828448    -0.12700
C127        C  0.39708906  0.12370587  0.16920604    -0.11100
C128        C  0.35318609  0.12615897  0.16956271    -0.12700
C129        C  0.14692673  0.12644707  0.17040426    -0.11100
C130        C  0.10299269  0.12404904  0.17018075    -0.12700
C131        C  0.99965233  0.23632499  0.15638639    -0.11100
C132        C  0.99962484  0.26455771  0.15608299    -0.12700
O133        O  0.29101062  0.21717540  0.37982357    -0.70800
O134        O  0.29039010  0.28301396  0.62490662    -0.71800
O135        O  0.29071452  0.28422643  0.37826590    -0.60400
O136        O  0.29046321  0.21608709  0.62614860    -0.68800
O137        O  0.20930862  0.21606479  0.62614544    -0.68300
O138        O  0.20958232  0.28411005  0.37822377    -0.59600
O139        O  0.20923662  0.28301862  0.62489975    -0.72100
O140        O  0.20986806  0.21707889  0.37964431    -0.70900
Cu141      Cu  0.29322830  0.25002762  0.66903662     1.04600
Cu142      Cu  0.20706669  0.24998951  0.33533423     1.04300
C143        C  0.25042507  0.20642053  0.39335434     0.95400
C144        C  0.24981805  0.29372221  0.61131054     0.94600
C145        C  0.25009641  0.29531866  0.39128295     0.86700
C146        C  0.24989908  0.20494200  0.61315813     0.93000
O147        O  0.03998676  0.46863323  0.37913525    -0.70800
O148        O  0.03914623  0.03474775  0.62393466    -0.71800
O149        O  0.04116906  0.03226842  0.37798867    -0.60400
O150        O  0.04116456  0.46461288  0.62526677    -0.68800
O151        O  0.45896550  0.46514288  0.62545325    -0.68300
O152        O  0.45900516  0.03207134  0.37789685    -0.59600
O153        O  0.46086397  0.03418598  0.62451679    -0.72100
O154        O  0.46007742  0.46850663  0.37870502    -0.70900
Cu155      Cu  0.04302784  0.50075824  0.33378953     1.04600
Cu156      Cu  0.45696307  0.50078520  0.33323316     1.04300
C157        C  0.99940391  0.45812912  0.39301373     0.95400
C158        C  0.99857508  0.04606637  0.61118249     0.94600
C159        C  0.00067013  0.04292288  0.39180683     0.86700
C160        C  0.00057062  0.45321786  0.61269111     0.93000
C161        C  0.45069751  0.12187596  0.50234971     0.32200
C162        C  0.04936314  0.12255142  0.50179721     0.32200
C163        C  0.47478154  0.15384837  0.49664399    -0.04000
C164        C  0.47505291  0.10923281  0.54165705    -0.04800
C165        C  0.47422792  0.10189824  0.46839018    -0.04700
C166        C  0.02529943  0.15451078  0.49613977    -0.04000
C167        C  0.02499849  0.10987738  0.54108133    -0.04800
C168        C  0.02586972  0.10265016  0.46775933    -0.04700
C169        C  0.04041624  0.18516822  0.49319526    -0.30100
N170        N  0.99999798  0.20345736  0.49079870     0.16400
C171        C  0.45972064  0.18455611  0.49391960    -0.30100
H172        H  0.42238993  0.19300401  0.49465006     0.18400
C173        C  0.03905023  0.08594505  0.56709363    -0.29000
N174        N  0.99869398  0.07210382  0.58311546     0.15200
C175        C  0.46100144  0.08526662  0.56760468    -0.29000
C176        C  0.04104649  0.08059980  0.43955571    -0.29300
N177        N  0.00072823  0.06743368  0.42208647     0.15700
H178        H  0.07845669  0.07373088  0.43344940     0.18300
C179        C  0.45908610  0.07986533  0.44014753    -0.29300
H180        H  0.42168041  0.07303415  0.43394770     0.18300
H181        H  0.42400101  0.07677414  0.57167090     0.18300
H182        H  0.07775843  0.19360635  0.49375462     0.18400
H183        H  0.07605449  0.07746765  0.57118181     0.18300
C184        C  0.45067855  0.37780503  0.50188943     0.32200
C185        C  0.04940696  0.37793909  0.50184205     0.32200
C186        C  0.47494721  0.34587559  0.49610803    -0.04000
C187        C  0.47492594  0.39813929  0.46864676    -0.04800
C188        C  0.47402027  0.39012377  0.54186339    -0.05300
C189        C  0.02520938  0.34615972  0.49512336    -0.04000
C190        C  0.02516748  0.39875690  0.46921828    -0.04800
C191        C  0.02605850  0.38957762  0.54210957    -0.04700
C192        C  0.04027698  0.31552653  0.49171104    -0.30100
N193        N  0.99984019  0.29722823  0.48985102     0.16400
C194        C  0.45996609  0.31514969  0.49319193    -0.30100
H195        H  0.42263020  0.30669289  0.49341870     0.18400
C196        C  0.03995361  0.42079609  0.44092225    -0.29000
N197        N  0.99944377  0.43409199  0.42398446     0.15200
C198        C  0.46016117  0.42022220  0.44029086    -0.29000
C199        C  0.04055112  0.41338150  0.56818959    -0.29300
N200        N  0.00049341  0.42702703  0.58495357     0.15700
H201        H  0.07752962  0.42209030  0.57154131     0.18300
C202        C  0.45949238  0.41398278  0.56791591    -0.29300
H203        H  0.42248436  0.42261912  0.57134867     0.18300
H204        H  0.42278674  0.42680188  0.43351578     0.18300
H205        H  0.07761744  0.30707895  0.49207016     0.18400
H206        H  0.07732783  0.42727833  0.43397979     0.18300
C207        C  0.29950642  0.37236716  0.50091426     0.32200
C208        C  0.20050700  0.37242419  0.50086746     0.32200
C209        C  0.27538706  0.40440568  0.50545915    -0.04000
C210        C  0.27575584  0.35908984  0.46169488    -0.04800
C211        C  0.27541417  0.35304015  0.53513767    -0.04700
C212        C  0.22471155  0.40442986  0.50544058    -0.04000
C213        C  0.22425099  0.35911126  0.46166499    -0.04800
C214        C  0.22447529  0.35307172  0.53511416    -0.04700
C215        C  0.20964324  0.43510958  0.50799373    -0.30100
N216        N  0.25008784  0.45341561  0.50957887     0.16400
C217        C  0.29050841  0.43508013  0.50801063    -0.30100
H218        H  0.32787298  0.44348723  0.50778941     0.18400
C219        C  0.20982181  0.33499961  0.43603780    -0.29000
N220        N  0.25001181  0.32114544  0.41969148     0.15200
C221        C  0.29017918  0.33498037  0.43608974    -0.29000
C222        C  0.20945844  0.33126058  0.56361793    -0.29300
N223        N  0.24984837  0.31813401  0.58093391     0.15700
H224        H  0.17207453  0.32445108  0.56996081     0.18300
C225        C  0.29030435  0.33120850  0.56365451    -0.29300
H226        H  0.32765648  0.32434907  0.57003440     0.18300
H227        H  0.32723713  0.32650426  0.43236334     0.18300
H228        H  0.17229295  0.44354234  0.50775942     0.18400
H229        H  0.17275769  0.32654492  0.43225706     0.18300
C230        C  0.29953043  0.12771264  0.50395662     0.32200
C231        C  0.20048618  0.12788302  0.50377848     0.32200
C232        C  0.27520516  0.09573827  0.49977387    -0.04000
C233        C  0.27571518  0.14119247  0.54300521    -0.04800
C234        C  0.27564262  0.14692582  0.46950654    -0.04700
C235        C  0.22451851  0.09582454  0.49968368    -0.04000
C236        C  0.22419364  0.14126564  0.54290906    -0.04800
C237        C  0.22470558  0.14700152  0.46942681    -0.04700
C238        C  0.20928146  0.06516965  0.49790905    -0.30100
N239        N  0.24965659  0.04679823  0.49685598     0.16400
C240        C  0.29017422  0.06503309  0.49804740    -0.30100
H241        H  0.32749304  0.05654555  0.49840067     0.18400
C242        C  0.20973546  0.16533264  0.56848810    -0.29000
N243        N  0.24992943  0.17912573  0.58485403     0.15200
C244        C  0.29014710  0.16525822  0.56861313    -0.29000
C245        C  0.20988151  0.16889819  0.44096175    -0.29300
N246        N  0.25036306  0.18198213  0.42373555     0.15700
H247        H  0.17254427  0.17581742  0.43462162     0.18300
C248        C  0.29071075  0.16880508  0.44108041    -0.29300
H249        H  0.32810799  0.17564204  0.43484221     0.18300
H250        H  0.32721551  0.17368136  0.57245872     0.18300
H251        H  0.17188844  0.05681231  0.49813798     0.18400
H252        H  0.17268501  0.17382024  0.57221352     0.18300
C253        C  0.25008733  0.48619795  0.51013900    -0.11100
C254        C  0.24956863  0.01406619  0.49569538    -0.12700
C255        C  0.35314956  0.37371717  0.50111395    -0.11100
C256        C  0.39704858  0.37633850  0.50148466    -0.12700
C257        C  0.14689555  0.37385500  0.50104043    -0.11100
C258        C  0.10301666  0.37650561  0.50142338    -0.12700
C259        C  0.39705385  0.12333642  0.50308088    -0.11100
C260        C  0.35317689  0.12614180  0.50375279    -0.12700
C261        C  0.14685730  0.12657321  0.50336379    -0.11100
C262        C  0.10297442  0.12396553  0.50256395    -0.12700
C263        C  0.99995379  0.23623335  0.48959494    -0.11100
C264        C  0.99987082  0.26444257  0.48928226    -0.12700
O265        O  0.29042830  0.21700874  0.71305708    -0.70800
O266        O  0.29109309  0.28243273  0.95726610    -0.71800
O267        O  0.29041521  0.28395228  0.71198263    -0.60400
O268        O  0.29073535  0.21542820  0.95851631    -0.68800
O269        O  0.20959039  0.21552487  0.95844935    -0.68300
O270        O  0.20926330  0.28396118  0.71201289    -0.59600
O271        O  0.20993066  0.28248556  0.95724004    -0.72100
O272        O  0.20926486  0.21699473  0.71308241    -0.70900
Cu273      Cu  0.29361848  0.24948151  0.00140915     1.04600
Cu274      Cu  0.20645036  0.25001997  0.66904742     1.04300
C275        C  0.24985663  0.20618910  0.72648116     0.95400
C276        C  0.25053440  0.29326040  0.94382914     0.94600
C277        C  0.24985315  0.29506916  0.72502662     0.86700
C278        C  0.25013881  0.20432545  0.94548847     0.93000
O279        O  0.04108072  0.46741160  0.71228377    -0.70800
O280        O  0.04030693  0.03421688  0.95786638    -0.71800
O281        O  0.03964618  0.03261404  0.71088403    -0.60400
O282        O  0.04166836  0.46445483  0.95725810    -0.68800
O283        O  0.45861150  0.46499611  0.95610561    -0.68300
O284        O  0.46015542  0.03197108  0.71147227    -0.59600
O285        O  0.45976788  0.03423513  0.95719396    -0.72100
O286        O  0.45918515  0.46806503  0.71257688    -0.70900
Cu287      Cu  0.04397329  0.49951130  0.66692337     1.04600
Cu288      Cu  0.45627263  0.50013979  0.66718135     1.04300
C289        C  0.00046180  0.45695724  0.72615039     0.95400
C290        C  0.99968040  0.04544554  0.94508739     0.94600
C291        C  0.99914482  0.04315483  0.72478439     0.86700
C292        C  0.00106798  0.45300715  0.94469793     0.93000
C293        C  0.45079685  0.12199859  0.83498121     0.32200
C294        C  0.04921500  0.12188983  0.83510935     0.32200
C295        C  0.47493691  0.15389003  0.82910094    -0.04000
C296        C  0.47463134  0.10954318  0.87461345    -0.04800
C297        C  0.47471965  0.10188581  0.80143085    -0.04700
C298        C  0.02506198  0.15384867  0.82972049    -0.04000
C299        C  0.02536520  0.10911889  0.87457059    -0.04800
C300        C  0.02516713  0.10211311  0.80127653    -0.04700
C301        C  0.04008323  0.18441719  0.82540430    -0.30100
N302        N  0.99958975  0.20261366  0.82272050     0.16400
C303        C  0.45990637  0.18446811  0.82497528    -0.30100
H304        H  0.42257299  0.19293061  0.82483012     0.18400
C305        C  0.03974878  0.08509978  0.90033066    -0.29000
N306        N  0.99958771  0.07129350  0.91673644     0.15200
C307        C  0.46029266  0.08539851  0.90018500    -0.29000
C308        C  0.03992876  0.08035646  0.77263281    -0.29300
N309        N  0.99936750  0.06735719  0.75539086     0.15700
H310        H  0.07725762  0.07359303  0.76599486     0.18300
C311        C  0.45988465  0.07992822  0.77306220    -0.29300
H312        H  0.42253387  0.07318637  0.76647053     0.18300
H313        H  0.42326498  0.07683735  0.90381232     0.18300
H314        H  0.07742365  0.19285908  0.82490289     0.18400
H315        H  0.07679361  0.07659922  0.90406609     0.18300
C316        C  0.45059852  0.37691710  0.83446131     0.32200
C317        C  0.04954020  0.37666958  0.83486591     0.32200
C318        C  0.47485627  0.34510121  0.82836985    -0.04000
C319        C  0.47460569  0.39730331  0.80133336    -0.04800
C320        C  0.47399272  0.38915081  0.87434538    -0.05300
C321        C  0.02519954  0.34494036  0.82812544    -0.04000
C322        C  0.02557927  0.39738588  0.80206067    -0.04800
C323        C  0.02618156  0.38855465  0.87500428    -0.04700
C324        C  0.04007657  0.31438089  0.82340386    -0.30100
N325        N  0.99951812  0.29625903  0.82069646     0.16400
C326        C  0.45990474  0.31450523  0.82433710    -0.30100
H327        H  0.42259185  0.30600330  0.82424068     0.18400
C328        C  0.04068568  0.41935872  0.77383519    -0.29000
N329        N  0.00033221  0.43279724  0.75688318     0.15200
C330        C  0.45954725  0.41964392  0.77359558    -0.29000
C331        C  0.04082894  0.41257967  0.90074658    -0.29300
N332        N  0.00088554  0.42659658  0.91718501     0.15700
H333        H  0.07789555  0.42114405  0.90405893     0.18300
C334        C  0.45940057  0.41344121  0.89957460    -0.29300
H335        H  0.42234052  0.42202619  0.90286123     0.18300
H336        H  0.42212396  0.42630868  0.76715088     0.18300
H337        H  0.07736724  0.30583899  0.82327100     0.18400
H338        H  0.07813292  0.42577489  0.76705700     0.18300
C339        C  0.29956736  0.37235324  0.83414371     0.32200
C340        C  0.20060841  0.37224559  0.83439839     0.32200
C341        C  0.27537019  0.40438110  0.83829144    -0.04000
C342        C  0.27570424  0.35877568  0.79522732    -0.04800
C343        C  0.27574540  0.35333184  0.86872530    -0.04700
C344        C  0.22464999  0.40432899  0.83842953    -0.04000
C345        C  0.22425899  0.35872023  0.79536771    -0.04800
C346        C  0.22481123  0.35328731  0.86885529    -0.04700
C347        C  0.20948298  0.43498388  0.84044736    -0.30100
N348        N  0.24990814  0.45331547  0.84154153     0.16400
C349        C  0.29040095  0.43506113  0.84020243    -0.30100
H350        H  0.32772927  0.44352829  0.83966577     0.18400
C351        C  0.20973398  0.33464254  0.76982120    -0.29000
N352        N  0.24989781  0.32084915  0.75339726     0.15200
C353        C  0.29013014  0.33472217  0.76960039    -0.29000
C354        C  0.21001192  0.33121361  0.89701945    -0.29300
N355        N  0.25051402  0.31798916  0.91396828     0.15700
H356        H  0.17269458  0.32417107  0.90319841     0.18300
C357        C  0.29086050  0.33125809  0.89680951    -0.29300
H358        H  0.32824207  0.32425280  0.90278401     0.18300
H359        H  0.32720843  0.32632833  0.76568684     0.18300
H360        H  0.17211092  0.44337856  0.84014752     0.18400
H361        H  0.17266695  0.32617185  0.76612365     0.18300
C362        C  0.29964349  0.12728417  0.83607859     0.32200
C363        C  0.20054358  0.12710859  0.83612236     0.32200
C364        C  0.27562745  0.09527516  0.83195618    -0.04000
C365        C  0.27583930  0.14068743  0.87514011    -0.04800
C366        C  0.27548368  0.14628583  0.80165401    -0.04700
C367        C  0.22490673  0.09515820  0.83198376    -0.04000
C368        C  0.22432675  0.14062641  0.87517185    -0.04800
C369        C  0.22452902  0.14620804  0.80167048    -0.04700
C370        C  0.21002731  0.06448485  0.82985770    -0.30100
N371        N  0.25063791  0.04636508  0.82849071     0.16400
C372        C  0.29097415  0.06471002  0.82980453    -0.30100
H373        H  0.32838543  0.05637999  0.82993152     0.18400
C374        C  0.20987536  0.16464553  0.90085846    -0.29000
N375        N  0.25008853  0.17848667  0.91717864     0.15200
C376        C  0.29028855  0.16469320  0.90081214    -0.29000
C377        C  0.20950561  0.16820476  0.77346163    -0.29300
N378        N  0.24989546  0.18147105  0.75636072     0.15700
H379        H  0.17212976  0.17514895  0.76733342     0.18300
C380        C  0.29036472  0.16830178  0.77343931    -0.29300
H381        H  0.32769908  0.17532883  0.76729452     0.18300
H382        H  0.32734602  0.17315096  0.90459337     0.18300
H383        H  0.17274467  0.05592838  0.83003562     0.18400
H384        H  0.17280362  0.17306076  0.90470466     0.18300
C385        C  0.24987613  0.48604921  0.84150100    -0.11100
C386        C  0.25088630  0.01371452  0.82732094    -0.12700
C387        C  0.35312840  0.37352673  0.83410888    -0.11100
C388        C  0.39703735  0.37565593  0.83423301    -0.12700
C389        C  0.14702955  0.37327723  0.83454869    -0.11100
C390        C  0.10310818  0.37535455  0.83464126    -0.12700
C391        C  0.39717511  0.12340845  0.83523109    -0.11100
C392        C  0.35328069  0.12598390  0.83575486    -0.12700
C393        C  0.14685213  0.12567889  0.83581341    -0.11100
C394        C  0.10290759  0.12319823  0.83529466    -0.12700
C395        C  0.99945677  0.23532281  0.82031677    -0.11100
C396        C  0.99937294  0.26350501  0.81962547    -0.12700
O397        O  0.28964059  0.71477382  0.03978541    -0.70800
O398        O  0.29069975  0.78464244  0.28928758    -0.71800
O399        O  0.28975353  0.78163030  0.04391717    -0.60400
O400        O  0.29098517  0.71766202  0.28611020    -0.68800
O401        O  0.20984929  0.71757416  0.28623276    -0.68300
O402        O  0.20860746  0.78178002  0.04387041    -0.59600
O403        O  0.20955422  0.78453825  0.28928775    -0.72100
O404        O  0.20849105  0.71479778  0.03987850    -0.70900
Cu405      Cu  0.29369016  0.74999426  0.33128941     1.04600
Cu406      Cu  0.20575726  0.74978069  0.99832564     1.04300
C407        C  0.24908875  0.70336547  0.05239679     0.95400
C408        C  0.25008554  0.79589201  0.27652827     0.94600
C409        C  0.24922893  0.79215052  0.05785346     0.86700
C410        C  0.25041852  0.70711223  0.27225504     0.93000
O411        O  0.04099104  0.96543349  0.04271983    -0.70800
O412        O  0.04049060  0.53288909  0.28845513    -0.71800
O413        O  0.04136064  0.53453070  0.04086162    -0.60400
O414        O  0.04012768  0.96740732  0.28810550    -0.68800
O415        O  0.45999955  0.96751733  0.28765872    -0.68300
O416        O  0.45872300  0.53346565  0.04112445    -0.59600
O417        O  0.45939165  0.53296017  0.28777195    -0.72100
O418        O  0.45921680  0.96585100  0.04242235    -0.70900
Cu419      Cu  0.04342925  0.99984963  0.00034016     1.04600
Cu420      Cu  0.45670022  0.00002007  0.99978324     1.04300
C421        C  0.00049095  0.95409601  0.05557904     0.95400
C422        C  0.99998526  0.54335121  0.27438953     0.94600
C423        C  0.00071162  0.54596931  0.05335221     0.86700
C424        C  0.99948976  0.95681674  0.27445507     0.93000
C425        C  0.45039753  0.62188669  0.16240014     0.32200
C426        C  0.04960987  0.62209216  0.16357433     0.32200
C427        C  0.47458247  0.65380957  0.16734793    -0.04000
C428        C  0.47430059  0.60217768  0.19639364    -0.04800
C429        C  0.47413895  0.60897289  0.12306597    -0.04700
C430        C  0.02553805  0.65395696  0.16978059    -0.04000
C431        C  0.02568069  0.60175203  0.19687186    -0.04800
C432        C  0.02593355  0.60991933  0.12371951    -0.04700
C433        C  0.04069599  0.68452548  0.17391143    -0.30100
N434        N  0.00029930  0.70281377  0.17646389     0.16400
C435        C  0.45948479  0.68447434  0.16943028    -0.30100
H436        H  0.42214171  0.69291733  0.16890604     0.18400
C437        C  0.04059310  0.58022119  0.22581115    -0.29000
N438        N  0.00012210  0.56724615  0.24325969     0.15200
C439        C  0.45933785  0.58048589  0.22514562    -0.29000
C440        C  0.04049433  0.58604962  0.09774008    -0.29300
N441        N  0.00047343  0.57218012  0.08121420     0.15700
H442        H  0.07755484  0.57753523  0.09419359     0.18300
C443        C  0.45953327  0.58479197  0.09775717    -0.29300
H444        H  0.42244244  0.57632738  0.09420956     0.18300
H445        H  0.42194336  0.57386207  0.23177638     0.18300
H446        H  0.07806701  0.69292587  0.17397061     0.18400
H447        H  0.07798459  0.57377840  0.23275537     0.18300
C448        C  0.45054442  0.87744995  0.16504486     0.32200
C449        C  0.04950835  0.87740414  0.16505519     0.32200
C450        C  0.47472160  0.84539722  0.16886177    -0.04000
C451        C  0.47396092  0.89103453  0.12589685    -0.04800
C452        C  0.47495223  0.89645480  0.19940158    -0.05300
C453        C  0.02541021  0.84549582  0.17089609    -0.04000
C454        C  0.02629297  0.88971449  0.12506677    -0.04800
C455        C  0.02515945  0.89762488  0.19817489    -0.04700
C456        C  0.04057710  0.81491231  0.17478544    -0.30100
N457        N  0.00018914  0.79657883  0.17683856     0.16400
C458        C  0.45958433  0.81471825  0.17048044    -0.30100
H459        H  0.42221596  0.80631492  0.17021229     0.18400
C460        C  0.04070088  0.91404948  0.09976090    -0.29000
N461        N  0.00059608  0.92788654  0.08331570     0.15200
C462        C  0.45945373  0.91518081  0.10041339    -0.29000
C463        C  0.03994511  0.91946958  0.22667047    -0.29300
N464        N  0.99943689  0.93267080  0.24367566     0.15700
H465        H  0.07731354  0.92602376  0.23353241     0.18300
C466        C  0.46020143  0.91884488  0.22719585    -0.29300
H467        H  0.42287256  0.92587017  0.23337014     0.18300
H468        H  0.42242522  0.92374455  0.09685384     0.18300
H469        H  0.07795995  0.80653541  0.17497988     0.18400
H470        H  0.07766056  0.92282383  0.09658949     0.18300
C471        C  0.29935001  0.87213223  0.16674279     0.32200
C472        C  0.20043973  0.87219268  0.16693853     0.32200
C473        C  0.27522468  0.90402812  0.16079922    -0.04000
C474        C  0.27518056  0.85181903  0.13354941    -0.04800
C475        C  0.27575980  0.85991249  0.20662303    -0.04700
C476        C  0.22457420  0.90404609  0.16089789    -0.04000
C477        C  0.22427758  0.85187358  0.13366120    -0.04800
C478        C  0.22415772  0.85994015  0.20672268    -0.04700
C479        C  0.20945703  0.93470617  0.15830332    -0.30100
N480        N  0.24987557  0.95301486  0.15655275     0.16400
C481        C  0.29031417  0.93470058  0.15814416    -0.30100
H482        H  0.32765303  0.94314257  0.15878820     0.18400
C483        C  0.20909565  0.82964588  0.10578534    -0.29000
N484        N  0.24939358  0.81623689  0.08870300     0.15200
C485        C  0.28993316  0.82952038  0.10560201    -0.29000
C486        C  0.20982272  0.83586447  0.23241560    -0.29300
N487        N  0.25000534  0.82200661  0.24866392     0.15700
H488        H  0.17281986  0.82725018  0.23599562     0.18300
C489        C  0.29013393  0.83582144  0.23226353    -0.29300
H490        H  0.32712505  0.82716019  0.23570278     0.18300
H491        H  0.32727724  0.82275468  0.09901983     0.18300
H492        H  0.17211996  0.94314546  0.15910106     0.18400
H493        H  0.17164703  0.82300899  0.09939041     0.18300
C494        C  0.29935132  0.62755121  0.16211805     0.32200
C495        C  0.20049528  0.62754564  0.16266316     0.32200
C496        C  0.27527440  0.59571695  0.16867894    -0.04000
C497        C  0.27560924  0.64813948  0.19527546    -0.04800
C498        C  0.27537211  0.63943726  0.12223433    -0.04700
C499        C  0.22463722  0.59572084  0.16896529    -0.04000
C500        C  0.22471334  0.64811618  0.19553684    -0.04800
C501        C  0.22379061  0.63944226  0.12252655    -0.04700
C502        C  0.20952971  0.56509957  0.17240996    -0.30100
N503        N  0.24995967  0.54679817  0.17426645     0.16400
C504        C  0.29038111  0.56508121  0.17193445    -0.30100
H505        H  0.32771929  0.55663475  0.17140323     0.18400
C506        C  0.20988766  0.66992174  0.22413080    -0.29000
N507        N  0.25037952  0.68310749  0.24123535     0.15200
C508        C  0.29072183  0.66999152  0.22374971    -0.29000
C509        C  0.20919233  0.66332830  0.09663034    -0.29300
N510        N  0.24921033  0.67708171  0.07997010     0.15700
H511        H  0.17218467  0.67199901  0.09333346     0.18300
C512        C  0.28949598  0.66332052  0.09617645    -0.29300
H513        H  0.32644872  0.67198233  0.09244451     0.18300
H514        H  0.32815925  0.67651073  0.23038487     0.18300
H515        H  0.17217204  0.55667656  0.17232185     0.18400
H516        H  0.17250591  0.67636568  0.23111061     0.18300
C517        C  0.24983757  0.98578799  0.15667480    -0.11100
C518        C  0.24995497  0.51402944  0.17558179    -0.12700
C519        C  0.35299477  0.87350514  0.16634348    -0.11100
C520        C  0.39689741  0.87608441  0.16564978    -0.12700
C521        C  0.14689465  0.87357941  0.16662543    -0.11100
C522        C  0.10304696  0.87609028  0.16579389    -0.12700
C523        C  0.39680167  0.62338217  0.16221443    -0.11100
C524        C  0.35294121  0.62610141  0.16201100    -0.12700
C525        C  0.14696857  0.62614021  0.16312721    -0.11100
C526        C  0.10313649  0.62350685  0.16350039    -0.12700
C527        C  0.00033340  0.73558579  0.17801075    -0.11100
C528        C  0.00028983  0.76379976  0.17811346    -0.12700
O529        O  0.29098861  0.71529390  0.37333309    -0.70800
O530        O  0.29093256  0.78407831  0.62237374    -0.71800
O531        O  0.29083261  0.78239402  0.37636595    -0.60400
O532        O  0.29102485  0.71715706  0.62052898    -0.68800
O533        O  0.20987232  0.71712350  0.62054475    -0.68300
O534        O  0.20969403  0.78237898  0.37633655    -0.59600
O535        O  0.20977593  0.78400915  0.62230828    -0.72100
O536        O  0.20985108  0.71533885  0.37340046    -0.70900
Cu537      Cu  0.29373178  0.74994189  0.66499514     1.04600
Cu538      Cu  0.20694345  0.74994234  0.33133222     1.04300
C539        C  0.25040983  0.70399065  0.38611731     0.95400
C540        C  0.25034614  0.79522695  0.60943225     0.94600
C541        C  0.25024974  0.79302485  0.39008394     0.86700
C542        C  0.25045128  0.70656900  0.60675993     0.93000
O543        O  0.04133727  0.96510250  0.37535710    -0.70800
O544        O  0.04126385  0.53165086  0.62160877    -0.71800
O545        O  0.03990738  0.53559286  0.37557121    -0.60400
O546        O  0.03938716  0.96778919  0.62133118    -0.68800
O547        O  0.46072640  0.96734762  0.62170148    -0.68300
O548        O  0.46008254  0.53574030  0.37492970    -0.59600
O549        O  0.45894473  0.53218939  0.62171831    -0.72100
O550        O  0.45885162  0.96498031  0.37484660    -0.70900
Cu551      Cu  0.04343982  0.99979302  0.33307822     1.04600
Cu552      Cu  0.45671947  0.99981312  0.33274952     1.04300
C553        C  0.00088160  0.95375963  0.38836438     0.95400
C554        C  0.00068591  0.54220793  0.60780774     0.94600
C555        C  0.99930237  0.54692353  0.38823783     0.86700
C556        C  0.99884676  0.95717683  0.60754370     0.93000
C557        C  0.45067592  0.62248397  0.49779184     0.32200
C558        C  0.04943338  0.62244076  0.49851461     0.32200
C559        C  0.47472978  0.65424030  0.50530453    -0.04000
C560        C  0.47430497  0.60144532  0.53055343    -0.04800
C561        C  0.47472386  0.61106260  0.45769705    -0.04700
C562        C  0.02528570  0.65423063  0.50538271    -0.04000
C563        C  0.02579253  0.60177799  0.53168869    -0.04800
C564        C  0.02530780  0.61058202  0.45869852    -0.04700
C565        C  0.04033001  0.68480361  0.50976607    -0.30100
N566        N  0.99987675  0.70300789  0.51283469     0.16400
C567        C  0.45964516  0.68477054  0.51039346    -0.30100
H568        H  0.42230461  0.69321978  0.51031044     0.18400
C569        C  0.04094923  0.57976010  0.55990991    -0.29000
N570        N  0.00062110  0.56649696  0.57722368     0.15200
C571        C  0.45917658  0.57963956  0.55908570    -0.29000
C572        C  0.03951014  0.58678733  0.43250514    -0.29300
N573        N  0.99929102  0.57299668  0.41622864     0.15700
H574        H  0.07651152  0.57825155  0.42863630     0.18300
C575        C  0.46053282  0.58729991  0.43140417    -0.29300
H576        H  0.42354325  0.57872102  0.42761326     0.18300
H577        H  0.42172814  0.57323264  0.56587179     0.18300
H578        H  0.07765606  0.69327861  0.50957102     0.18400
H579        H  0.07839233  0.57316033  0.56639225     0.18300
C580        C  0.45062567  0.87748580  0.49856743     0.32200
C581        C  0.04947202  0.87737701  0.49877098     0.32200
C582        C  0.47481522  0.84561558  0.50493090    -0.04000
C583        C  0.47366483  0.88955768  0.45831251    -0.04800
C584        C  0.47513098  0.89796715  0.53134354    -0.05300
C585        C  0.02520819  0.84552823  0.50490992    -0.04000
C586        C  0.02643559  0.88958065  0.45859606    -0.04800
C587        C  0.02499151  0.89777971  0.53166193    -0.04700
C588        C  0.04020980  0.81499849  0.50995548    -0.30100
N589        N  0.99973739  0.79676391  0.51244263     0.16400
C590        C  0.45977603  0.81512206  0.51048375    -0.30100
H591        H  0.42241060  0.80674864  0.51145051     0.18400
C592        C  0.04098786  0.91383942  0.43311671    -0.29000
N593        N  0.00098366  0.92762828  0.41636213     0.15200
C594        C  0.45915508  0.91373068  0.43265351    -0.29000
C595        C  0.03962429  0.91967425  0.56015061    -0.29300
N596        N  0.99901169  0.93295625  0.57688814     0.15700
H597        H  0.07695764  0.92619821  0.56719581     0.18300
C598        C  0.46052177  0.91965297  0.56009469    -0.29300
H599        H  0.42319298  0.92608143  0.56730681     0.18300
H600        H  0.42219181  0.92250460  0.42952161     0.18300
H601        H  0.07755626  0.80657735  0.51073160     0.18400
H602        H  0.07797161  0.92258481  0.43001177     0.18300
C603        C  0.29956946  0.87221111  0.50011349     0.32200
C604        C  0.20059619  0.87207642  0.50018697     0.32200
C605        C  0.27531242  0.90417308  0.49539964    -0.04000
C606        C  0.27558546  0.85264271  0.46607297    -0.04800
C607        C  0.27593567  0.85912094  0.53944398    -0.04700
C608        C  0.22462788  0.90409755  0.49544283    -0.04000
C609        C  0.22466013  0.85257261  0.46610864    -0.04800
C610        C  0.22441019  0.85906874  0.53948752    -0.04700
C611        C  0.20940526  0.93477863  0.49437545    -0.30100
N612        N  0.24977034  0.95316562  0.49359921     0.16400
C613        C  0.29028829  0.93490719  0.49428761    -0.30100
H614        H  0.32759108  0.94339318  0.49532599     0.18400
C615        C  0.20976682  0.83056317  0.43779813    -0.29000
N616        N  0.25020925  0.81739844  0.42058547     0.15200
C617        C  0.29059139  0.83067411  0.43774627    -0.29000
C618        C  0.21007332  0.83497077  0.56507484    -0.29300
N619        N  0.25030549  0.82114932  0.58130614     0.15700
H620        H  0.17305197  0.82642822  0.56879540     0.18300
C621        C  0.29044641  0.83502415  0.56498489    -0.29300
H622        H  0.32750499  0.82652318  0.56861099     0.18300
H623        H  0.32798816  0.82392206  0.43135352     0.18300
H624        H  0.17203874  0.94314282  0.49550250     0.18400
H625        H  0.17240627  0.82370599  0.43145184     0.18300
C626        C  0.29962373  0.62783235  0.49605006     0.32200
C627        C  0.20067256  0.62792581  0.49615434     0.32200
C628        C  0.27543561  0.59601393  0.50227594    -0.04000
C629        C  0.27570874  0.64820858  0.52925246    -0.04800
C630        C  0.27596029  0.63997310  0.45615729    -0.04700
C631        C  0.22478049  0.59605358  0.50233229    -0.04000
C632        C  0.22481265  0.64824921  0.52931012    -0.04800
C633        C  0.22434440  0.64005463  0.45620686    -0.04700
C634        C  0.20964895  0.56546557  0.50617938    -0.30100
N635        N  0.25006293  0.54716832  0.50844726     0.16400
C636        C  0.29050900  0.56541841  0.50607310    -0.30100
H637        H  0.32785263  0.55697101  0.50595415     0.18400
C638        C  0.20993598  0.66968296  0.55832832    -0.29000
N639        N  0.25041778  0.68258635  0.57579820     0.15200
C640        C  0.29079404  0.66962094  0.55823979    -0.29000
C641        C  0.21012541  0.66411751  0.43041648    -0.29300
N642        N  0.25033819  0.67783671  0.41396912     0.15700
H643        H  0.17317837  0.67284529  0.42692487     0.18300
C644        C  0.29043118  0.66392431  0.43029527    -0.29300
H645        H  0.32747631  0.67245742  0.42669649     0.18300
H646        H  0.32822715  0.67599139  0.56514649     0.18300
H647        H  0.17228488  0.55705654  0.50616744     0.18400
H648        H  0.17255142  0.67611483  0.56531778     0.18300
C649        C  0.24963074  0.98590384  0.49464733    -0.11100
C650        C  0.25005293  0.51440306  0.50982396    -0.12700
C651        C  0.35316130  0.87362081  0.49991650    -0.11100
C652        C  0.39704175  0.87614697  0.49936309    -0.12700
C653        C  0.14697319  0.87337701  0.50005929    -0.11100
C654        C  0.10308200  0.87594373  0.49953942    -0.12700
C655        C  0.39708984  0.62386964  0.49721013    -0.11100
C656        C  0.35321691  0.62641757  0.49642192    -0.12700
C657        C  0.14700003  0.62654510  0.49671987    -0.11100
C658        C  0.10309872  0.62390880  0.49777794    -0.12700
C659        C  0.99977816  0.73578007  0.51446054    -0.11100
C660        C  0.99971429  0.76399735  0.51436201    -0.12700
O661        O  0.29094361  0.71581147  0.70765968    -0.70800
O662        O  0.28984710  0.78463450  0.95680350    -0.71800
O663        O  0.29076651  0.78278288  0.70929946    -0.60400
O664        O  0.28972841  0.71782609  0.95292823    -0.68800
O665        O  0.20857469  0.71776266  0.95287493    -0.68300
O666        O  0.20960802  0.78276511  0.70921605    -0.59600
O667        O  0.20870262  0.78467828  0.95661728    -0.72100
O668        O  0.20978949  0.71579220  0.70762708    -0.70900
Cu669      Cu  0.29252202  0.74973716  0.99837883     1.04600
Cu670      Cu  0.20695469  0.74990093  0.66494650     1.04300
C671        C  0.25036774  0.70461423  0.72054961     0.95400
C672        C  0.24934214  0.79587973  0.94382825     0.94600
C673        C  0.25015723  0.79355403  0.72273133     0.86700
C674        C  0.24919267  0.70728424  0.93904630     0.93000
O675        O  0.03989503  0.96579500  0.70849878    -0.70800
O676        O  0.04189357  0.53170269  0.95361046    -0.71800
O677        O  0.04107362  0.53441518  0.70851210    -0.60400
O678        O  0.04004564  0.96712272  0.95562700    -0.68800
O679        O  0.45995816  0.96725587  0.95532618    -0.68300
O680        O  0.45925655  0.53513302  0.70886964    -0.59600
O681        O  0.45848664  0.53217932  0.95409990    -0.72100
O682        O  0.46002222  0.96510117  0.70870387    -0.70900
Cu683      Cu  0.04228505  0.00023066  0.66613352     1.04600
Cu684      Cu  0.45766963  0.99965168  0.66659217     1.04300
C685        C  0.99945581  0.95451648  0.72157398     0.95400
C686        C  0.00133627  0.54222075  0.93967345     0.94600
C687        C  0.00044462  0.54583765  0.72097483     0.86700
C688        C  0.99938987  0.95643307  0.94209828     0.93000
C689        C  0.45040906  0.62289080  0.83111212     0.32200
C690        C  0.04981531  0.62222193  0.83011263     0.32200
C691        C  0.47449503  0.65476399  0.83691306    -0.04000
C692        C  0.47409850  0.60287558  0.86484396    -0.04800
C693        C  0.47435645  0.61042727  0.79157797    -0.04700
C694        C  0.02569154  0.65404861  0.83613062    -0.04000
C695        C  0.02622277  0.60193875  0.86362656    -0.04800
C696        C  0.02591093  0.60997654  0.79048555    -0.04700
C697        C  0.04084467  0.68468065  0.83873561    -0.30100
N698        N  0.00043989  0.70297151  0.84066018     0.16400
C699        C  0.45929763  0.68529145  0.84093437    -0.30100
H700        H  0.42192558  0.69369317  0.84104641     0.18400
C701        C  0.04149478  0.57988548  0.89177596    -0.29000
N702        N  0.00123833  0.56652147  0.90905341     0.15200
C703        C  0.45888955  0.58095810  0.89317647    -0.29000
C704        C  0.04040901  0.58612516  0.76457835    -0.29300
N705        N  0.00029869  0.57215138  0.74845711     0.15700
H706        H  0.07747444  0.57765339  0.76087526     0.18300
C707        C  0.45989081  0.58662061  0.76553066    -0.29300
H708        H  0.42282463  0.57817596  0.76174473     0.18300
H709        H  0.42144525  0.57425012  0.89945635     0.18300
H710        H  0.07819132  0.69311042  0.83802613     0.18400
H711        H  0.07896235  0.57327062  0.89813395     0.18300
C712        C  0.45064125  0.87771465  0.83174841     0.32200
C713        C  0.04943261  0.87779948  0.83182549     0.32200
C714        C  0.47463821  0.84585232  0.83783715    -0.04000
C715        C  0.47410418  0.88987802  0.79176927    -0.04800
C716        C  0.47497241  0.89792411  0.86489576    -0.05300
C717        C  0.02547793  0.84568698  0.83596730    -0.04000
C718        C  0.02581426  0.89123362  0.79263102    -0.04800
C719        C  0.02501988  0.89684115  0.86617244    -0.04700
C720        C  0.04079655  0.81507125  0.83872651    -0.30100
N721        N  0.00047462  0.79665485  0.84018100     0.16400
C722        C  0.45934691  0.81537582  0.84226337    -0.30100
H723        H  0.42194512  0.80703342  0.84252945     0.18400
C724        C  0.04006659  0.91529024  0.76684234    -0.29000
N725        N  0.99975949  0.92877113  0.75009801     0.15200
C726        C  0.45992139  0.91402644  0.76608434    -0.29000
C727        C  0.03976922  0.91872450  0.89467139    -0.29300
N728        N  0.99928520  0.93188795  0.91178456     0.15700
H729        H  0.07710406  0.92562042  0.90106198     0.18300
C730        C  0.46016366  0.91944198  0.89378104    -0.29300
H731        H  0.42279200  0.92593765  0.90072493     0.18300
H732        H  0.42302182  0.92285650  0.76270343     0.18300
H733        H  0.07821800  0.80676403  0.83890558     0.18400
H734        H  0.07702345  0.92394598  0.76315242     0.18300
C735        C  0.29964077  0.87196758  0.83316668     0.32200
C736        C  0.20056883  0.87221469  0.83296565     0.32200
C737        C  0.27568789  0.90400060  0.82900073    -0.04000
C738        C  0.27558024  0.85301169  0.79862125    -0.04800
C739        C  0.27563680  0.85855947  0.87215988    -0.04700
C740        C  0.22498056  0.90414208  0.82889422    -0.04000
C741        C  0.22462413  0.85312074  0.79851144    -0.04800
C742        C  0.22419773  0.85868690  0.87204973    -0.04700
C743        C  0.21012288  0.93483064  0.82720930    -0.30100
N744        N  0.25073480  0.95295606  0.82626109     0.16400
C745        C  0.29105868  0.93458817  0.82739007    -0.30100
H746        H  0.32846293  0.94291635  0.82806832     0.18400
C747        C  0.20967367  0.83136811  0.76992914    -0.29000
N748        N  0.25010851  0.81816911  0.75278796     0.15200
C749        C  0.29053098  0.83121400  0.77012336    -0.29000
C750        C  0.20944903  0.83520282  0.89844281    -0.29300
N751        N  0.24953919  0.82159532  0.91532551     0.15700
H752        H  0.17231558  0.82692968  0.90240821     0.18300
C753        C  0.28990607  0.83499250  0.89860056    -0.29300
H754        H  0.32690822  0.82652068  0.90271081     0.18300
H755        H  0.32788218  0.82424508  0.76394010     0.18300
H756        H  0.17284919  0.94339622  0.82771407     0.18400
H757        H  0.17230501  0.82454166  0.76355304     0.18300
C758        C  0.29945154  0.62780469  0.82987428     0.32200
C759        C  0.20060687  0.62770850  0.82938406     0.32200
C760        C  0.27537539  0.59583639  0.83502942    -0.04000
C761        C  0.27518307  0.64762348  0.86347167    -0.04800
C762        C  0.27603616  0.64051411  0.79023437    -0.04700
C763        C  0.22472289  0.59580916  0.83476856    -0.04000
C764        C  0.22428219  0.64758497  0.86321860    -0.04800
C765        C  0.22447989  0.64042815  0.78997150    -0.04700
C766        C  0.20957837  0.56518908  0.83752048    -0.30100
N767        N  0.25000361  0.54692508  0.83952881     0.16400
C768        C  0.29046877  0.56520181  0.83797285    -0.30100
H769        H  0.32782059  0.55677022  0.83801844     0.18400
C770        C  0.20906327  0.66974130  0.89117892    -0.29000
N771        N  0.24934670  0.68306229  0.90841224     0.15200
C772        C  0.28990626  0.66978408  0.89158289    -0.29000
C773        C  0.21015082  0.66461190  0.76451728    -0.29300
N774        N  0.25035539  0.67862710  0.74857261     0.15700
H775        H  0.17310259  0.67309935  0.76076104     0.18300
C776        C  0.29048057  0.66479495  0.76495420    -0.29300
H777        H  0.32748081  0.67346718  0.76161351     0.18300
H778        H  0.32723681  0.67658668  0.89815577     0.18300
H779        H  0.17222663  0.55675757  0.83713198     0.18400
H780        H  0.17162424  0.67651073  0.89736741     0.18300
C781        C  0.25094239  0.98561778  0.82659621    -0.11100
C782        C  0.24994608  0.51420771  0.84086375    -0.12700
C783        C  0.35323088  0.87337384  0.83296036    -0.11100
C784        C  0.39705950  0.87624970  0.83231257    -0.12700
C785        C  0.14694813  0.87377569  0.83268686    -0.11100
C786        C  0.10306837  0.87649768  0.83223727    -0.12700
C787        C  0.39686418  0.62420302  0.83078532    -0.11100
C788        C  0.35299266  0.62656290  0.83031755    -0.12700
C789        C  0.14711868  0.62627915  0.82936303    -0.11100
C790        C  0.10330650  0.62366351  0.82972085    -0.12700
C791        C  0.00053922  0.73572326  0.84133469    -0.11100
C792        C  0.00062623  0.76390596  0.84120588    -0.12700
O793        O  0.79056721  0.21542108  0.04408237    -0.70800
O794        O  0.79006951  0.28492139  0.29289202    -0.71800
O795        O  0.79041121  0.28240467  0.04563950    -0.60400
O796        O  0.79005297  0.21801009  0.29056196    -0.68800
O797        O  0.70889618  0.21796261  0.29061692    -0.68300
O798        O  0.70926550  0.28236816  0.04572594    -0.59600
O799        O  0.70892286  0.28495150  0.29290530    -0.72100
O800        O  0.70943728  0.21536437  0.04411182    -0.70900
Cu801      Cu  0.79295818  0.25052517  0.33521454     1.04600
Cu802      Cu  0.70646424  0.24956496  0.00128181     1.04300
C803        C  0.75003263  0.20426774  0.05718453     0.95400
C804        C  0.74950956  0.29618690  0.28005523     0.94600
C805        C  0.74985010  0.29301389  0.05939773     0.86700
C806        C  0.74948134  0.20735052  0.27691887     0.93000
O807        O  0.53995116  0.46661646  0.04326518    -0.70800
O808        O  0.54130403  0.03469768  0.29126800    -0.71800
O809        O  0.54023623  0.03272337  0.04459209    -0.60400
O810        O  0.54055217  0.46590785  0.29113333    -0.68800
O811        O  0.95945680  0.46583117  0.29171795    -0.68300
O812        O  0.96004834  0.03248129  0.04559689    -0.59600
O813        O  0.95880594  0.03441944  0.29137663    -0.72100
O814        O  0.96008590  0.46760309  0.04440407    -0.70900
Cu815      Cu  0.54257511  0.49929775  0.99854127     1.04600
Cu816      Cu  0.95765333  0.49956880  0.99884513     1.04300
C817        C  0.49946513  0.45601928  0.05721313     0.95400
C818        C  0.50082885  0.04611558  0.27841052     0.94600
C819        C  0.49960876  0.04335341  0.05819886     0.86700
C820        C  0.49991947  0.45460033  0.27846593     0.93000
C821        C  0.95045308  0.12259594  0.16891558     0.32200
C822        C  0.54956950  0.12241150  0.16814584     0.32200
C823        C  0.97457081  0.15452905  0.16320630    -0.04000
C824        C  0.97363834  0.11023727  0.20889993    -0.04800
C825        C  0.97486049  0.10239079  0.13571967    -0.04700
C826        C  0.52538969  0.15426932  0.16206586    -0.04000
C827        C  0.52634933  0.11022526  0.20821325    -0.04800
C828        C  0.52528098  0.10208602  0.13508096    -0.04700
C829        C  0.54049327  0.18487179  0.15827231    -0.30100
N830        N  0.50007663  0.20318912  0.15638002     0.16400
C831        C  0.95939560  0.18514984  0.15959705    -0.30100
H832        H  0.92200451  0.19351174  0.15935709     0.18400
C833        C  0.54092365  0.08620549  0.23401736    -0.29000
N834        N  0.50089222  0.07244030  0.25074282     0.15200
C835        C  0.95911417  0.08597726  0.23431710    -0.29000
C836        C  0.54008206  0.08057581  0.10614650    -0.29300
N837        N  0.49957439  0.06747723  0.08899152     0.15700
H838        H  0.57745598  0.07418505  0.09905678     0.18300
C839        C  0.96016343  0.08055437  0.10710343    -0.29300
H840        H  0.92280905  0.07402047  0.10017565     0.18300
H841        H  0.92213375  0.07721744  0.23743409     0.18300
H842        H  0.57785810  0.19328224  0.15823356     0.18400
H843        H  0.57792552  0.07751291  0.23726372     0.18300
C844        C  0.95059598  0.37821676  0.16926542     0.32200
C845        C  0.54940426  0.37793592  0.16894287     0.32200
C846        C  0.97462639  0.34632132  0.16313773    -0.04000
C847        C  0.97456858  0.39851519  0.13585902    -0.04800
C848        C  0.97447135  0.39045187  0.20903274    -0.05300
C849        C  0.52538534  0.34595667  0.16343995    -0.04000
C850        C  0.52539973  0.39788252  0.13519306    -0.04800
C851        C  0.52557842  0.39053530  0.20851332    -0.04700
C852        C  0.54057457  0.31532654  0.16009214    -0.30100
N853        N  0.50019825  0.29698093  0.15791248     0.16400
C854        C  0.95939106  0.31572624  0.15941759    -0.30100
H855        H  0.92200255  0.30736092  0.15964813     0.18400
C856        C  0.54019123  0.41933578  0.10606453    -0.29000
N857        N  0.49967391  0.43212389  0.08840771     0.15200
C858        C  0.95976288  0.42022490  0.10707533    -0.29000
C859        C  0.53994782  0.41460581  0.23420689    -0.29300
N860        N  0.49980024  0.42847947  0.25052035     0.15700
H861        H  0.57697633  0.42316580  0.23781877     0.18300
C862        C  0.96012075  0.41446419  0.23485216    -0.29300
H863        H  0.92309269  0.42302223  0.23848134     0.18300
H864        H  0.92240548  0.42681059  0.10024435     0.18300
H865        H  0.57795680  0.30694818  0.16014634     0.18400
H866        H  0.57754448  0.42591303  0.09920506     0.18300
C867        C  0.79946058  0.37199670  0.16972418     0.32200
C868        C  0.70046656  0.37211497  0.16959237     0.32200
C869        C  0.77538967  0.40388097  0.16392760    -0.04000
C870        C  0.77543035  0.35189343  0.13622067    -0.04800
C871        C  0.77561060  0.35965695  0.20942335    -0.04700
C872        C  0.72473061  0.40395141  0.16386502    -0.04000
C873        C  0.72448824  0.35195598  0.13616623    -0.04800
C874        C  0.72405268  0.35972114  0.20935084    -0.04700
C875        C  0.70974428  0.43462217  0.16128191    -0.30100
N876        N  0.75025726  0.45284661  0.15972284     0.16400
C877        C  0.79062084  0.43450027  0.16136768    -0.30100
H878        H  0.82799509  0.44288290  0.16195415     0.18400
C879        C  0.70948230  0.33030847  0.10744274    -0.29000
N880        N  0.74988871  0.31719949  0.09010944     0.15200
C881        C  0.79034551  0.33020414  0.10751354    -0.29000
C882        C  0.70950020  0.33591927  0.23537944    -0.29300
N883        N  0.74959012  0.32215120  0.25194035     0.15700
H884        H  0.67244317  0.32742840  0.23904628     0.18300
C885        C  0.78984473  0.33579594  0.23546809    -0.29300
H886        H  0.82682044  0.32718505  0.23922118     0.18300
H887        H  0.82772727  0.32357750  0.10083019     0.18300
H888        H  0.67243495  0.44312186  0.16179461     0.18400
H889        H  0.67207097  0.32378586  0.10069693     0.18300
C890        C  0.79941919  0.12791690  0.16762980     0.32200
C891        C  0.70050293  0.12784272  0.16737988     0.32200
C892        C  0.77531805  0.09592419  0.17271218    -0.04000
C893        C  0.77524969  0.14761124  0.20143100    -0.04800
C894        C  0.77582339  0.14079310  0.12811597    -0.04700
C895        C  0.72465823  0.09589457  0.17258664    -0.04000
C896        C  0.72432010  0.14757409  0.20130526    -0.04800
C897        C  0.72432154  0.14074242  0.12799555    -0.04700
C898        C  0.70957465  0.06520442  0.17473121    -0.30100
N899        N  0.75001447  0.04689325  0.17617316     0.16400
C900        C  0.79043688  0.06523769  0.17492840    -0.30100
H901        H  0.82779115  0.05682220  0.17434045     0.18400
C902        C  0.70920282  0.16965174  0.22940535    -0.29000
N903        N  0.74954876  0.18294635  0.24656041     0.15200
C904        C  0.79005760  0.16971575  0.22958852    -0.29000
C905        C  0.70991572  0.16471826  0.10216126    -0.29300
N906        N  0.75008292  0.17852828  0.08574417     0.15700
H907        H  0.67285311  0.17315982  0.09833245     0.18300
C908        C  0.79024572  0.16481478  0.10233452    -0.29300
H909        H  0.82727890  0.17334689  0.09865682     0.18300
H910        H  0.82739818  0.17657570  0.23601733     0.18300
H911        H  0.67223861  0.05676308  0.17396140     0.18400
H912        H  0.67179311  0.17644977  0.23566189     0.18300
C913        C  0.75038698  0.48558563  0.15923185    -0.11100
C914        C  0.75002336  0.01411597  0.17583709    -0.12700
C915        C  0.85310715  0.37357074  0.16966380    -0.11100
C916        C  0.89695139  0.37662899  0.16944101    -0.12700
C917        C  0.64686292  0.37367407  0.16937890    -0.11100
C918        C  0.60300856  0.37649169  0.16909406    -0.12700
C919        C  0.89687033  0.12397177  0.16835557    -0.11100
C920        C  0.85300125  0.12656431  0.16791929    -0.12700
C921        C  0.64695901  0.12642332  0.16737356    -0.11100
C922        C  0.60311273  0.12381098  0.16764308    -0.12700
C923        C  0.50015386  0.23598547  0.15573918    -0.11100
C924        C  0.50023203  0.26420324  0.15626809    -0.12700
O925        O  0.79025121  0.21608101  0.37761323    -0.70800
O926        O  0.79081314  0.28383010  0.62496485    -0.71800
O927        O  0.79027546  0.28310203  0.37977292    -0.60400
O928        O  0.79085432  0.21679629  0.62316450    -0.68800
O929        O  0.70970183  0.21681567  0.62318238    -0.68300
O930        O  0.70911323  0.28313902  0.37985379    -0.59600
O931        O  0.70967888  0.28382112  0.62499887    -0.72100
O932        O  0.70911494  0.21608856  0.37773198    -0.70900
Cu933      Cu  0.79366110  0.24953784  0.66763643     1.04600
Cu934      Cu  0.70619091  0.25053189  0.33529404     1.04300
C935        C  0.74970979  0.20480296  0.39050958     0.95400
C936        C  0.75023170  0.29503782  0.61203920     0.94600
C937        C  0.74972979  0.29382972  0.39336527     0.86700
C938        C  0.75026489  0.20612031  0.60956147     0.93000
O939        O  0.54118162  0.46846653  0.37852905    -0.70800
O940        O  0.54200697  0.03424510  0.62471082    -0.71800
O941        O  0.54014688  0.03192876  0.37835096    -0.60400
O942        O  0.54009263  0.46511123  0.62548208    -0.68800
O943        O  0.96001784  0.46459443  0.62536877    -0.68300
O944        O  0.96002705  0.03217333  0.37837659    -0.59600
O945        O  0.95801152  0.03479949  0.62407111    -0.72100
O946        O  0.95885064  0.46858229  0.37899696    -0.70900
Cu947      Cu  0.54366951  0.50076873  0.33297103     1.04600
Cu948      Cu  0.95628949  0.50072075  0.33355889     1.04300
C949        C  0.50065616  0.45789172  0.39252024     0.95400
C950        C  0.50145105  0.04546797  0.61176105     0.94600
C951        C  0.49950002  0.04255868  0.39193357     0.86700
C952        C  0.49952437  0.45375225  0.61274897     0.93000
C953        C  0.95045028  0.12254930  0.50069941     0.32200
C954        C  0.54963056  0.12188294  0.50128021     0.32200
C955        C  0.97463629  0.15450257  0.49556914    -0.04000
C956        C  0.97350021  0.10983157  0.54051493    -0.04800
C957        C  0.97494522  0.10271769  0.46724541    -0.04700
C958        C  0.52542842  0.15382981  0.49607776    -0.04000
C959        C  0.52657402  0.10919137  0.54110660    -0.04800
C960        C  0.52516115  0.10197579  0.46789059    -0.04700
C961        C  0.54054272  0.18448797  0.49296613    -0.30100
N962        N  0.50015313  0.20287333  0.49165182     0.16400
C963        C  0.95955914  0.18513845  0.49225742    -0.30100
H964        H  0.92219565  0.19354533  0.49194902     0.18400
C965        C  0.54132142  0.08515088  0.56674775    -0.29000
N966        N  0.50135350  0.07143528  0.58362481     0.15200
C967        C  0.95873573  0.08582999  0.56621836    -0.29000
C968        C  0.53992991  0.08009151  0.43943949    -0.29300
N969        N  0.49942441  0.06677308  0.42261268     0.15700
H970        H  0.57729261  0.07351691  0.43259288     0.18300
C971        C  0.96020799  0.08080330  0.43882260    -0.29300
H972        H  0.92285508  0.07416449  0.43204680     0.18300
H973        H  0.92168251  0.07723147  0.56947832     0.18300
H974        H  0.57792492  0.19286148  0.49280814     0.18400
H975        H  0.57836699  0.07653494  0.56999924     0.18300
C976        C  0.95052129  0.37795366  0.50237074     0.32200
C977        C  0.54956631  0.37788605  0.50248102     0.32200
C978        C  0.97456235  0.34616315  0.49539311    -0.04000
C979        C  0.97425551  0.39877886  0.46947800    -0.04800
C980        C  0.97447785  0.38955770  0.54237756    -0.05300
C981        C  0.52559067  0.34591692  0.49641114    -0.04000
C982        C  0.52583258  0.39820100  0.46894583    -0.04800
C983        C  0.52553347  0.39011434  0.54215864    -0.04700
C984        C  0.54077994  0.31521525  0.49368991    -0.30100
N985        N  0.50042217  0.29681706  0.49166346     0.16400
C986        C  0.95942955  0.31552708  0.49214698    -0.30100
H987        H  0.92209509  0.30708146  0.49290833     0.18400
C988        C  0.54094108  0.42033245  0.44073677    -0.29000
N989        N  0.50063613  0.43360737  0.42333551     0.15200
C990        C  0.95911344  0.42083936  0.44129769    -0.29000
C991        C  0.53978591  0.41387745  0.56840684    -0.29300
N992        N  0.49955601  0.42762956  0.58477596     0.15700
H993        H  0.57679844  0.42239814  0.57228925     0.18300
C994        C  0.96026252  0.41330166  0.56862504    -0.29300
H995        H  0.92328816  0.42192476  0.57238062     0.18300
H996        H  0.92166857  0.42736709  0.43470580     0.18300
H997        H  0.57814784  0.30682688  0.49438013     0.18400
H998        H  0.57837331  0.42702149  0.43438350     0.18300
C999        C  0.79950921  0.37266672  0.50323901     0.32200
C1000       C  0.70057634  0.37268978  0.50339233     0.32200
C1001       C  0.77538484  0.40466193  0.49869109    -0.04000
C1002       C  0.77542240  0.35337886  0.46903451    -0.04800
C1003       C  0.77588243  0.35935637  0.54247523    -0.04700
C1004       C  0.72471520  0.40467587  0.49876881    -0.04000
C1005       C  0.72449179  0.35339142  0.46911794    -0.04800
C1006       C  0.72435914  0.35937133  0.54255864    -0.04700
C1007       C  0.70961716  0.43526247  0.49520046    -0.30100
N1008       N  0.75007761  0.45349167  0.49296781     0.16400
C1009       C  0.79051651  0.43523717  0.49507463    -0.30100
H1010       H  0.82788438  0.44363407  0.49457019     0.18400
C1011       C  0.70943699  0.33152063  0.44076274    -0.29000
N1012       N  0.74981781  0.31834104  0.42353662     0.15200
C1013       C  0.79030415  0.33149908  0.44062559    -0.29000
C1014       C  0.70999732  0.33503397  0.56782253    -0.29300
N1015       N  0.75019155  0.32103793  0.58391519     0.15700
H1016       H  0.67294942  0.32652445  0.57147679     0.18300
C1017       C  0.79032827  0.33500359  0.56768164    -0.29300
H1018       H  0.82737620  0.32646143  0.57119752     0.18300
H1019       H  0.82765330  0.32462617  0.43424725     0.18300
H1020       H  0.67226139  0.44368412  0.49481422     0.18400
H1021       H  0.67204850  0.32466786  0.43451455     0.18300
C1022       C  0.79947309  0.12737053  0.49920230     0.32200
C1023       C  0.70058551  0.12730987  0.49942616     0.32200
C1024       C  0.77543092  0.09537541  0.50424198    -0.04000
C1025       C  0.77555917  0.14690563  0.53325584    -0.04800
C1026       C  0.77565771  0.14039332  0.45987003    -0.04700
C1027       C  0.72477239  0.09535429  0.50435793    -0.04000
C1028       C  0.72465369  0.14687239  0.53337682    -0.04800
C1029       C  0.72412059  0.14038269  0.45998837    -0.04700
C1030       C  0.70969140  0.06474990  0.50787233    -0.30100
N1031       N  0.75014443  0.04649110  0.50988326     0.16400
C1032       C  0.79057062  0.06477130  0.50767479    -0.30100
H1033       H  0.82793345  0.05635748  0.50764887     0.18400
C1034       C  0.70975113  0.16860386  0.56199267    -0.29000
N1035       N  0.75021800  0.18172967  0.57917774     0.15200
C1036       C  0.79060412  0.16864861  0.56180836    -0.29000
C1037       C  0.70966256  0.16471240  0.43472202    -0.29300
N1038       N  0.74977378  0.17867518  0.41843506     0.15700
H1039       H  0.67262409  0.17329423  0.43129151     0.18300
C1040       C  0.78997926  0.16468010  0.43449391    -0.29300
H1041       H  0.82701325  0.17321959  0.43084399     0.18300
H1042       H  0.82799598  0.17541657  0.56819195     0.18300
H1043       H  0.67233727  0.05631982  0.50803366     0.18400
H1044       H  0.67238441  0.17533259  0.56854842     0.18300
C1045       C  0.75010162  0.48617808  0.49077813    -0.11100
C1046       C  0.75013481  0.01374488  0.51086301    -0.12700
C1047       C  0.85308012  0.37403348  0.50297925    -0.11100
C1048       C  0.89694814  0.37658506  0.50266192    -0.12700
C1049       C  0.64700640  0.37405571  0.50324468    -0.11100
C1050       C  0.60313503  0.37657069  0.50287613    -0.12700
C1051       C  0.89690416  0.12380591  0.49993696    -0.11100
C1052       C  0.85302538  0.12613214  0.49936463    -0.12700
C1053       C  0.64703171  0.12587637  0.49982006    -0.11100
C1054       C  0.60318506  0.12325761  0.50050945    -0.12700
C1055       C  0.50028166  0.23571051  0.49089963    -0.11100
C1056       C  0.50042834  0.26397067  0.49091959    -0.12700
O1057       O  0.79086381  0.21519082  0.71028828    -0.70800
O1058       O  0.79025625  0.28382423  0.95842716    -0.71800
O1059       O  0.79086814  0.28230178  0.71213344    -0.60400
O1060       O  0.79041160  0.21675706  0.95684687    -0.68800
O1061       O  0.70926509  0.21674077  0.95686098    -0.68300
O1062       O  0.70972084  0.28228153  0.71213009    -0.59600
O1063       O  0.70913208  0.28383743  0.95847418    -0.72100
O1064       O  0.70973492  0.21520557  0.71025559    -0.70900
Cu1065     Cu  0.79320622  0.24959700  0.00122754     1.04600
Cu1066     Cu  0.70691293  0.24953769  0.66764253     1.04300
C1067       C  0.75028380  0.20393407  0.72316039     0.95400
C1068       C  0.74969124  0.29507342  0.94551396     0.94600
C1069       C  0.75028583  0.29294907  0.72580076     0.86700
C1070       C  0.74984203  0.20609300  0.94318336     0.93000
O1071       O  0.54033222  0.46815023  0.71254305    -0.70800
O1072       O  0.54091302  0.03430727  0.95749465    -0.71800
O1073       O  0.54131269  0.03191835  0.71184587    -0.60400
O1074       O  0.53976416  0.46506561  0.95614288    -0.68800
O1075       O  0.96054696  0.46449352  0.95731271    -0.68300
O1076       O  0.95848757  0.03254141  0.71121386    -0.59600
O1077       O  0.95917543  0.03430772  0.95825968    -0.72100
O1078       O  0.95993019  0.46753433  0.71230295    -0.70900
Cu1079     Cu  0.54301422  0.50013594  0.66709412     1.04600
Cu1080     Cu  0.95720670  0.49952426  0.66689068     1.04300
C1081       C  0.49980217  0.45755283  0.72636954     0.95400
C1082       C  0.50038626  0.04548549  0.94444638     0.94600
C1083       C  0.50063916  0.04252798  0.72539555     0.86700
C1084       C  0.49923213  0.45375403  0.94335821     0.93000
C1085       C  0.95023955  0.12191996  0.83498105     0.32200
C1086       C  0.54968689  0.12199172  0.83473965     0.32200
C1087       C  0.97438123  0.15383544  0.82966345    -0.04000
C1088       C  0.97383224  0.10910926  0.87451879    -0.04800
C1089       C  0.97423882  0.10218292  0.80126086    -0.04700
C1090       C  0.52558461  0.15386394  0.82898876    -0.04000
C1091       C  0.52620301  0.10951600  0.87450534    -0.04800
C1092       C  0.52563797  0.10193479  0.80136531    -0.04700
C1093       C  0.54077910  0.18439351  0.82483083    -0.30100
N1094       N  0.50039090  0.20267145  0.82237661     0.16400
C1095       C  0.95919767  0.18435176  0.82533487    -0.30100
H1096       H  0.92181212  0.19271652  0.82478949     0.18400
C1097       C  0.54059745  0.08532391  0.90001589    -0.29000
N1098       N  0.50045205  0.07148302  0.91637868     0.15200
C1099       C  0.95941788  0.08504933  0.90024131    -0.29000
C1100       C  0.54075496  0.08005871  0.77306932    -0.29300
N1101       N  0.50041337  0.06678821  0.75593909     0.15700
H1102       H  0.57818524  0.07346319  0.76652812     0.18300
C1103       C  0.95905574  0.08052868  0.77269395    -0.29300
H1104       H  0.92161484  0.07395514  0.76615199     0.18300
H1105       H  0.92239124  0.07649211  0.90388596     0.18300
H1106       H  0.57816071  0.19277290  0.82457874     0.18400
H1107       H  0.57760294  0.07668604  0.90348647     0.18300
C1108       C  0.95066641  0.37694189  0.83517737     0.32200
C1109       C  0.54947384  0.37709176  0.83475167     0.32200
C1110       C  0.97454274  0.34507944  0.82828322    -0.04000
C1111       C  0.97465840  0.39754748  0.80219428    -0.04800
C1112       C  0.97460690  0.38869785  0.87516351    -0.05300
C1113       C  0.52551344  0.34519372  0.82851681    -0.04000
C1114       C  0.52553072  0.39741365  0.80145112    -0.04800
C1115       C  0.52559004  0.38924862  0.87449311    -0.04700
C1116       C  0.54077953  0.31465027  0.82455804    -0.30100
N1117       N  0.50043184  0.29632927  0.82198362     0.16400
C1118       C  0.95921167  0.31459299  0.82364613    -0.30100
H1119       H  0.92180797  0.30625049  0.82372561     0.18400
C1120       C  0.54040105  0.41985271  0.77374746    -0.29000
N1121       N  0.49991643  0.43319819  0.75683919     0.15200
C1122       C  0.95982089  0.41965084  0.77402145    -0.29000
C1123       C  0.53967446  0.41362879  0.89975938    -0.29300
N1124       N  0.49939851  0.42754440  0.91570127     0.15700
H1125       H  0.57660629  0.42239574  0.90321473     0.18300
C1126       C  0.96059908  0.41283078  0.90095100    -0.29300
H1127       H  0.92369952  0.42163824  0.90444879     0.18300
H1128       H  0.92246025  0.42635819  0.76740664     0.18300
H1129       H  0.57816989  0.30628564  0.82465429     0.18400
H1130       H  0.57775938  0.42672919  0.76743128     0.18300
C1131       C  0.79949130  0.37193836  0.83613228     0.32200
C1132       C  0.70058086  0.37194791  0.83590552     0.32200
C1133       C  0.77537950  0.40387620  0.83029132    -0.04000
C1134       C  0.77558600  0.35188155  0.80256872    -0.04800
C1135       C  0.77568033  0.35938555  0.87579176    -0.04700
C1136       C  0.72473196  0.40386984  0.83017079    -0.04000
C1137       C  0.72468091  0.35189694  0.80244889    -0.04800
C1138       C  0.72410186  0.35938584  0.87566743    -0.04700
C1139       C  0.70962173  0.43444984  0.82591510    -0.30100
N1140       N  0.75002665  0.45275613  0.82351206     0.16400
C1141       C  0.79046047  0.43447918  0.82612601    -0.30100
H1142       H  0.82781735  0.44290125  0.82598725     0.18400
C1143       C  0.70977887  0.33028304  0.77366468    -0.29000
N1144       N  0.75024774  0.31720121  0.75640714     0.15200
C1145       C  0.79063511  0.33023857  0.77386252    -0.29000
C1146       C  0.70965252  0.33511084  0.90109166    -0.29300
N1147       N  0.74972863  0.32115104  0.91743784     0.15700
H1148       H  0.67262119  0.32651470  0.90450874     0.18300
C1149       C  0.78992008  0.33511608  0.90129276    -0.29300
H1150       H  0.82692927  0.32652926  0.90491374     0.18300
H1151       H  0.82804740  0.32363923  0.76725117     0.18300
H1152       H  0.67224868  0.44284017  0.82557565     0.18400
H1153       H  0.67239376  0.32373281  0.76686335     0.18300
C1154       C  0.79933352  0.12714946  0.83296620     0.32200
C1155       C  0.70050934  0.12726017  0.83280023     0.32200
C1156       C  0.77512239  0.09522435  0.83843185    -0.04000
C1157       C  0.77532475  0.14710066  0.86655543    -0.04800
C1158       C  0.77582136  0.13983811  0.79327112    -0.04700
C1159       C  0.72448747  0.09528856  0.83834006    -0.04000
C1160       C  0.72445360  0.14715266  0.86647184    -0.04800
C1161       C  0.72426893  0.13988641  0.79318552    -0.04700
C1162       C  0.70925513  0.06465356  0.84127286    -0.30100
N1163       N  0.74960838  0.04627625  0.84315095     0.16400
C1164       C  0.79010233  0.06454250  0.84143581    -0.30100
H1165       H  0.82742401  0.05606255  0.84111456     0.18400
C1166       C  0.70944735  0.16882137  0.89515232    -0.29000
N1167       N  0.74985587  0.18184374  0.91257634     0.15200
C1168       C  0.79028817  0.16874804  0.89528036    -0.29000
C1169       C  0.71000370  0.16402107  0.76751125    -0.29300
N1170       N  0.75021971  0.17787101  0.75123222     0.15700
H1171       H  0.67300087  0.17261323  0.76385740     0.18300
C1172       C  0.79031013  0.16395705  0.76764042    -0.29300
H1173       H  0.82736245  0.17249144  0.76410462     0.18300
H1174       H  0.82768122  0.17533184  0.90198384     0.18300
H1175       H  0.67187284  0.05628327  0.84079451     0.18400
H1176       H  0.67205306  0.17547228  0.90173474     0.18300
C1177       C  0.74995409  0.48555489  0.82193328    -0.11100
C1178       C  0.74951193  0.01348059  0.84331964    -0.12700
C1179       C  0.85311869  0.37326415  0.83593132    -0.11100
C1180       C  0.89703151  0.37570425  0.83545515    -0.12700
C1181       C  0.64697807  0.37330765  0.83551937    -0.11100
C1182       C  0.60308554  0.37580193  0.83502800    -0.12700
C1183       C  0.89669960  0.12325096  0.83444245    -0.11100
C1184       C  0.85285811  0.12575581  0.83351059    -0.12700
C1185       C  0.64700632  0.12594139  0.83320021    -0.11100
C1186       C  0.60319134  0.12336829  0.83413555    -0.12700
C1187       C  0.50050189  0.23540409  0.82075246    -0.11100
C1188       C  0.50054592  0.26358701  0.82063615    -0.12700
O1189       O  0.79165456  0.71783971  0.04337883    -0.70800
O1190       O  0.79068979  0.78258231  0.28623729    -0.71800
O1191       O  0.79142455  0.78491108  0.03937638    -0.60400
O1192       O  0.79026326  0.71557896  0.28909034    -0.68800
O1193       O  0.70913440  0.71569843  0.28894912    -0.68300
O1194       O  0.71029528  0.78476230  0.03944282    -0.59600
O1195       O  0.70954288  0.78270089  0.28620635    -0.72100
O1196       O  0.71049883  0.71781303  0.04331059    -0.70900
Cu1197     Cu  0.79321520  0.75022591  0.33124460     1.04600
Cu1198     Cu  0.70755262  0.74970376  0.99791220     1.04300
C1199       C  0.75105579  0.70723713  0.05708075     0.95400
C1200       C  0.75016646  0.79321142  0.27242914     0.94600
C1201       C  0.75081325  0.79623413  0.05208251     0.86700
C1202       C  0.74968476  0.70442512  0.27606516     0.93000
O1203       O  0.54036717  0.96580764  0.04258731    -0.70800
O1204       O  0.54051653  0.53295200  0.28750854    -0.71800
O1205       O  0.53988591  0.53345921  0.04090165    -0.60400
O1206       O  0.54113906  0.96750708  0.28791953    -0.68800
O1207       O  0.95898738  0.96733083  0.28845851    -0.68300
O1208       O  0.96024229  0.53460922  0.04044042    -0.59600
O1209       O  0.95935056  0.53286950  0.28820440    -0.72100
O1210       O  0.95985134  0.96538875  0.04292877    -0.70900
Cu1211     Cu  0.54346563  0.00004060  0.00004985     1.04600
Cu1212     Cu  0.95670154  0.99987506  0.00068662     1.04300
C1213       C  0.49973042  0.95468375  0.05548574     0.95400
C1214       C  0.49988258  0.54344561  0.27367489     0.94600
C1215       C  0.49937813  0.54468029  0.05383265     0.86700
C1216       C  0.50063409  0.95685915  0.27409250     0.93000
C1217       C  0.95074836  0.62208659  0.16368866     0.32200
C1218       C  0.54940293  0.62180598  0.16257715     0.32200
C1219       C  0.97490429  0.65396536  0.16982910    -0.04000
C1220       C  0.97479143  0.60177958  0.19689930    -0.04800
C1221       C  0.97437159  0.60986203  0.12372383    -0.04700
C1222       C  0.52525123  0.65377839  0.16742405    -0.04000
C1223       C  0.52522633  0.60216832  0.19645453    -0.04800
C1224       C  0.52572701  0.60887779  0.12311028    -0.04700
C1225       C  0.54037127  0.68444557  0.16951216    -0.30100
N1226       N  0.49993652  0.70275234  0.17081502     0.16400
C1227       C  0.95984960  0.68456026  0.17395973    -0.30100
H1228       H  0.92250548  0.69300442  0.17404511     0.18400
C1229       C  0.54016194  0.58048312  0.22516877    -0.29000
N1230       N  0.49976094  0.56743464  0.24259920     0.15200
C1231       C  0.95974834  0.58027963  0.22579002    -0.29000
C1232       C  0.53990062  0.58454818  0.09782022    -0.29300
N1233       N  0.49959530  0.57073024  0.08169268     0.15700
H1234       H  0.57685297  0.57584499  0.09427839     0.18300
C1235       C  0.96021243  0.58586457  0.09772602    -0.29300
H1236       H  0.92326880  0.57716663  0.09411149     0.18300
H1237       H  0.92231716  0.57389897  0.23269172     0.18300
H1238       H  0.57772289  0.69287093  0.16904282     0.18400
H1239       H  0.57755728  0.57386116  0.23179968     0.18300
C1240       C  0.95068046  0.87732337  0.16430604     0.32200
C1241       C  0.54959374  0.87739046  0.16433215     0.32200
C1242       C  0.97476970  0.84544250  0.17052175    -0.04000
C1243       C  0.97472235  0.88961519  0.12470880    -0.04800
C1244       C  0.97425818  0.89763279  0.19783224    -0.05300
C1245       C  0.52542163  0.84536401  0.16850954    -0.04000
C1246       C  0.52542871  0.89094342  0.12556158    -0.04800
C1247       C  0.52593289  0.89647684  0.19906769    -0.04700
C1248       C  0.54048198  0.81466486  0.16994482    -0.30100
N1249       N  0.50001144  0.79638742  0.17121246     0.16400
C1250       C  0.95972688  0.81481426  0.17420528    -0.30100
H1251       H  0.92240043  0.80634080  0.17388069     0.18400
C1252       C  0.53985036  0.91494152  0.09989112    -0.29000
N1253       N  0.49963092  0.92888031  0.08381987     0.15200
C1254       C  0.96043326  0.91380012  0.09919621    -0.29000
C1255       C  0.54102167  0.91892169  0.22675210    -0.29300
N1256       N  0.50068756  0.93228317  0.24389755     0.15700
H1257       H  0.57839674  0.92603460  0.23253375     0.18300
C1258       C  0.95909765  0.91952269  0.22623015    -0.29300
H1259       H  0.92166334  0.92614309  0.23270680     0.18300
H1260       H  0.92339660  0.92232743  0.09551908     0.18300
H1261       H  0.57781215  0.80621106  0.16920096     0.18400
H1262       H  0.57694839  0.92326587  0.09587143     0.18300
C1263       C  0.79969610  0.87238471  0.16237102     0.32200
C1264       C  0.70077437  0.87228844  0.16224945     0.32200
C1265       C  0.77550508  0.90426358  0.16819799    -0.04000
C1266       C  0.77614647  0.86006083  0.12253238    -0.04800
C1267       C  0.77568460  0.85218210  0.19571156    -0.04700
C1268       C  0.72483505  0.90421638  0.16813871    -0.04000
C1269       C  0.72458229  0.85998714  0.12246194    -0.04800
C1270       C  0.72480330  0.85213950  0.19565096    -0.04700
C1271       C  0.70967203  0.93484005  0.17137652    -0.30100
N1272       N  0.75007034  0.95316471  0.17341678     0.16400
C1273       C  0.79054351  0.93490735  0.17145952    -0.30100
H1274       H  0.82788048  0.94336657  0.17134678     0.18400
C1275       C  0.71039843  0.83607349  0.09642229    -0.29000
N1276       N  0.75066316  0.82242152  0.07992687     0.15200
C1277       C  0.79071745  0.83624134  0.09650009    -0.29000
C1278       C  0.70983449  0.83041451  0.22427840    -0.29300
N1279       N  0.75024592  0.81734349  0.24164511     0.15700
H1280       H  0.67243607  0.82383184  0.23096103     0.18300
C1281       C  0.79067402  0.83048019  0.22438351    -0.29300
H1282       H  0.82807941  0.82396616  0.23116659     0.18300
H1283       H  0.82777710  0.82772785  0.09292603     0.18300
H1284       H  0.67230274  0.94323923  0.17119199     0.18400
H1285       H  0.67344519  0.82739716  0.09276328     0.18300
C1286       C  0.79970745  0.62755561  0.16618171     0.32200
C1287       C  0.70064273  0.62754144  0.16559272     0.32200
C1288       C  0.77560107  0.59552017  0.16204611    -0.04000
C1289       C  0.77561819  0.64109167  0.20510770    -0.04800
C1290       C  0.77595708  0.64660174  0.13159270    -0.04700
C1291       C  0.72491485  0.59550089  0.16174266    -0.04000
C1292       C  0.72411559  0.64113245  0.20480674    -0.04800
C1293       C  0.72502040  0.64658773  0.13127346    -0.04700
C1294       C  0.70989469  0.56478884  0.16012042    -0.30100
N1295       N  0.75037978  0.54650172  0.15939949     0.16400
C1296       C  0.79077957  0.56483953  0.16062968    -0.30100
H1297       H  0.82814197  0.55644239  0.16138153     0.18400
C1298       C  0.70954515  0.66501646  0.23073753    -0.29000
N1299       N  0.74968981  0.67862143  0.24760107     0.15200
C1300       C  0.78996847  0.66486169  0.23124287    -0.29000
C1301       C  0.71036276  0.66919941  0.10375533    -0.29300
N1302       N  0.75091643  0.68269422  0.08724697     0.15700
H1303       H  0.67306687  0.67630858  0.09761832     0.18300
C1304       C  0.79116894  0.66921831  0.10426445    -0.29300
H1305       H  0.82856937  0.67634213  0.09861671     0.18300
H1306       H  0.82704569  0.67318630  0.23538841     0.18300
H1307       H  0.67255714  0.55633330  0.16038979     0.18400
H1308       H  0.67248809  0.67350101  0.23441863     0.18300
C1309       C  0.75002167  0.98592214  0.17497047    -0.11100
C1310       C  0.75043044  0.51375692  0.15917475    -0.12700
C1311       C  0.85325312  0.87368255  0.16284728    -0.11100
C1312       C  0.89712899  0.87601783  0.16368749    -0.12700
C1313       C  0.64713599  0.87356945  0.16267699    -0.11100
C1314       C  0.60322949  0.87602894  0.16361948    -0.12700
C1315       C  0.89715918  0.62351850  0.16443452    -0.11100
C1316       C  0.85331012  0.62616639  0.16574733    -0.12700
C1317       C  0.64696803  0.62605157  0.16461279    -0.11100
C1318       C  0.60308816  0.62327299  0.16322989    -0.12700
C1319       C  0.49994693  0.73548544  0.17133542    -0.11100
C1320       C  0.49996275  0.76365061  0.17144081    -0.12700
O1321       O  0.79021432  0.71795416  0.37631497    -0.70800
O1322       O  0.79020642  0.78156890  0.61840458    -0.71800
O1323       O  0.79050084  0.78488565  0.37325794    -0.60400
O1324       O  0.79032351  0.71474466  0.62267485    -0.68800
O1325       O  0.70917288  0.71471881  0.62268755    -0.68300
O1326       O  0.70935735  0.78493405  0.37324250    -0.59600
O1327       O  0.70905960  0.78158446  0.61844471    -0.72100
O1328       O  0.70906885  0.71794721  0.37623609    -0.70900
Cu1329     Cu  0.79311948  0.74975446  0.66407489     1.04600
Cu1330     Cu  0.70646562  0.75031241  0.33117098     1.04300
C1331       C  0.74963286  0.70742902  0.39013257     0.95400
C1332       C  0.74963244  0.79198973  0.60442250     0.94600
C1333       C  0.74994354  0.79625793  0.38594769     0.86700
C1334       C  0.74975567  0.70338602  0.61001093     0.93000
O1335       O  0.53996718  0.96485485  0.37509021    -0.70800
O1336       O  0.54008477  0.53213498  0.62161788    -0.71800
O1337       O  0.54120561  0.53575035  0.37471826    -0.60400
O1338       O  0.54188146  0.96728253  0.62176097    -0.68800
O1339       O  0.95824000  0.96772086  0.62130939    -0.68300
O1340       O  0.95877261  0.53559870  0.37539080    -0.59600
O1341       O  0.96011569  0.53158769  0.62155182    -0.72100
O1342       O  0.96021790  0.96504016  0.37569145    -0.70900
Cu1343     Cu  0.54344550  0.99974235  0.33316954     1.04600
Cu1344     Cu  0.95670507  0.99971519  0.33351792     1.04300
C1345       C  0.49930263  0.95357352  0.38777524     0.95400
C1346       C  0.49950275  0.54262025  0.60770761     0.94600
C1347       C  0.50068974  0.54718106  0.38744444     0.86700
C1348       C  0.50129257  0.95680698  0.60788339     0.93000
C1349       C  0.95048008  0.62236864  0.49925027     0.32200
C1350       C  0.54949393  0.62244898  0.49851757     0.32200
C1351       C  0.97463173  0.65418229  0.50575721    -0.04000
C1352       C  0.97483571  0.60178314  0.53204035    -0.04800
C1353       C  0.97375707  0.61050532  0.45906816    -0.04700
C1354       C  0.52535326  0.65421118  0.50568295    -0.04000
C1355       C  0.52521281  0.60147602  0.53089595    -0.04800
C1356       C  0.52629229  0.61099164  0.45806125    -0.04700
C1357       C  0.54045776  0.68470604  0.51102336    -0.30100
N1358       N  0.50005842  0.70299158  0.51388882     0.16400
C1359       C  0.95948375  0.68470910  0.51036768    -0.30100
H1360       H  0.92210472  0.69308996  0.51072293     0.18400
C1361       C  0.54002837  0.57974818  0.55956959    -0.29000
N1362       N  0.49952354  0.56653955  0.57659934     0.15200
C1363       C  0.96008096  0.57981837  0.56041187    -0.29000
C1364       C  0.54076261  0.58710735  0.43199529    -0.29300
N1365       N  0.50072347  0.57346775  0.41514283     0.15700
H1366       H  0.57771253  0.57833050  0.42876084     0.18300
C1367       C  0.95924199  0.58660986  0.43308913    -0.29300
H1368       H  0.92226578  0.57789468  0.42976938     0.18300
H1369       H  0.92271901  0.57329442  0.56734757     0.18300
H1370       H  0.57783149  0.69308944  0.51152499     0.18400
H1371       H  0.57741563  0.57346919  0.56679108     0.18300
C1372       C  0.95056844  0.87739292  0.49769395     0.32200
C1373       C  0.54947232  0.87743100  0.49748411     0.32200
C1374       C  0.97456940  0.84553738  0.50435410    -0.04000
C1375       C  0.97486251  0.88951413  0.45806967    -0.04800
C1376       C  0.97406120  0.89782861  0.53112328    -0.05300
C1377       C  0.52544541  0.84558888  0.50437653    -0.04000
C1378       C  0.52521729  0.88945090  0.45778064    -0.04800
C1379       C  0.52604481  0.89798539  0.53080585    -0.04700
C1380       C  0.54058958  0.81508154  0.50958142    -0.30100
N1381       N  0.50021093  0.79685482  0.51327338     0.16400
C1382       C  0.95937376  0.81501332  0.50904146    -0.30100
H1383       H  0.92200575  0.80660924  0.50896937     0.18400
C1384       C  0.53937366  0.91344516  0.43182781    -0.29000
N1385       N  0.49917654  0.92742773  0.41577960     0.15200
C1386       C  0.96075838  0.91362381  0.43231128    -0.29000
C1387       C  0.54138946  0.91973141  0.55929508    -0.29300
N1388       N  0.50115087  0.93279279  0.57698039     0.15700
H1389       H  0.57886930  0.92625200  0.56576956     0.18300
C1390       C  0.95876372  0.91979347  0.55934081    -0.29300
H1391       H  0.92129982  0.92644660  0.56563782     0.18300
H1392       H  0.92374838  0.92215254  0.42847526     0.18300
H1393       H  0.57795394  0.80667392  0.50971349     0.18400
H1394       H  0.57639804  0.92193657  0.42794630     0.18300
C1395       C  0.79940851  0.87220299  0.49572683     0.32200
C1396       C  0.70050988  0.87226900  0.49559138     0.32200
C1397       C  0.77530838  0.90400487  0.50238430    -0.04000
C1398       C  0.77582733  0.86044481  0.45559965    -0.04800
C1399       C  0.77529359  0.85150369  0.52849629    -0.04700
C1400       C  0.72466153  0.90403729  0.50230468    -0.04000
C1401       C  0.72417939  0.86048994  0.45553020    -0.04800
C1402       C  0.72439948  0.85153625  0.52842251    -0.04700
C1403       C  0.70957808  0.93461380  0.50629129    -0.30100
N1404       N  0.75003208  0.95283285  0.50887379     0.16400
C1405       C  0.79044728  0.93456487  0.50644759    -0.30100
H1406       H  0.82780636  0.94298588  0.50643880     0.18400
C1407       C  0.70984298  0.83641840  0.42982989    -0.29000
N1408       N  0.74997361  0.82249854  0.41361828     0.15200
C1409       C  0.79012094  0.83632787  0.42994635    -0.29000
C1410       C  0.70930990  0.82935009  0.55639458    -0.29300
N1411       N  0.74967488  0.81598913  0.57345689     0.15700
H1412       H  0.67187598  0.82280021  0.56299843     0.18300
C1413       C  0.79015683  0.82930069  0.55651459    -0.29300
H1414       H  0.82753967  0.82270420  0.56323825     0.18300
H1415       H  0.82708019  0.82759005  0.42657915     0.18300
H1416       H  0.67224188  0.94307680  0.50612640     0.18400
H1417       H  0.67284635  0.82776948  0.42635588     0.18300
C1418       C  0.79936973  0.62783520  0.49968045     0.32200
C1419       C  0.70044881  0.62775233  0.49965479     0.32200
C1420       C  0.77529736  0.59599368  0.49343245    -0.04000
C1421       C  0.77563997  0.63982490  0.53957342    -0.04800
C1422       C  0.77530566  0.64824883  0.46652659    -0.04700
C1423       C  0.72463030  0.59595226  0.49341885    -0.04000
C1424       C  0.72407790  0.63979412  0.53955699    -0.04800
C1425       C  0.72438490  0.64818803  0.46652091    -0.04700
C1426       C  0.70957552  0.56529905  0.49092230    -0.30100
N1427       N  0.75005105  0.54705065  0.48932576     0.16400
C1428       C  0.79046040  0.56535996  0.49094697    -0.30100
H1429       H  0.82780164  0.55693325  0.49183927     0.18400
C1430       C  0.70964675  0.66359894  0.56560269    -0.29000
N1431       N  0.74978412  0.67729028  0.58215776     0.15200
C1432       C  0.78997357  0.66363336  0.56564388    -0.29000
C1433       C  0.70930104  0.67006698  0.43813547    -0.29300
N1434       N  0.74967113  0.68332665  0.42095624     0.15700
H1435       H  0.67187098  0.67656477  0.43142899     0.18300
C1436       C  0.79015787  0.67019346  0.43814610    -0.29300
H1437       H  0.82753003  0.67682432  0.43144244     0.18300
H1438       H  0.82695317  0.67227926  0.56925813     0.18300
H1439       H  0.67226336  0.55681759  0.49179158     0.18400
H1440       H  0.67264495  0.67221711  0.56917112     0.18300
C1441       C  0.75008235  0.98556468  0.51052887    -0.11100
C1442       C  0.75009995  0.51432357  0.48965777    -0.12700
C1443       C  0.85304123  0.87354373  0.49617822    -0.11100
C1444       C  0.89694225  0.87603809  0.49697853    -0.12700
C1445       C  0.64692487  0.87364405  0.49594292    -0.11100
C1446       C  0.60304734  0.87609777  0.49676040    -0.12700
C1447       C  0.89686465  0.62377842  0.49960967    -0.11100
C1448       C  0.85298406  0.62643478  0.49967173    -0.12700
C1449       C  0.64689685  0.62634100  0.49948403    -0.11100
C1450       C  0.60304059  0.62380088  0.49906813    -0.12700
C1451       C  0.50012727  0.73580262  0.51575116    -0.11100
C1452       C  0.50019312  0.76405831  0.51556802    -0.12700
O1453       O  0.79044541  0.71782756  0.70972335    -0.70800
O1454       O  0.79126635  0.78165104  0.95218973    -0.71800
O1455       O  0.79031101  0.78486390  0.70546764    -0.60400
O1456       O  0.79152961  0.71459380  0.95637855    -0.68800
O1457       O  0.71039863  0.71460592  0.95645652    -0.68300
O1458       O  0.70917494  0.78481654  0.70556118    -0.59600
O1459       O  0.71012054  0.78157507  0.95236765    -0.72100
O1460       O  0.70930899  0.71776634  0.70977084    -0.70900
Cu1461     Cu  0.79430082  0.74977428  0.99783966     1.04600
Cu1462     Cu  0.70636649  0.74971884  0.66412999     1.04300
C1463       C  0.74991137  0.70730585  0.72368450     0.95400
C1464       C  0.75061368  0.79203572  0.93829363     0.94600
C1465       C  0.74974923  0.79626071  0.71812406     0.86700
C1466       C  0.75093683  0.70314666  0.94383151     0.93000
O1467       O  0.54116603  0.96491235  0.70890234    -0.70800
O1468       O  0.53962339  0.53212364  0.95403959    -0.71800
O1469       O  0.54038957  0.53512457  0.70869572    -0.60400
O1470       O  0.54110762  0.96732291  0.95548061    -0.68800
O1471       O  0.95891681  0.96720836  0.95584264    -0.68300
O1472       O  0.95991853  0.53441727  0.70835740    -0.59600
O1473       O  0.96076152  0.53157883  0.95337797    -0.72100
O1474       O  0.95876135  0.96556479  0.70862200    -0.70900
Cu1475     Cu  0.54443821  0.99958347  0.66684328     1.04600
Cu1476     Cu  0.95552980  0.00013933  0.66630714     1.04300
C1477       C  0.50046477  0.95371256  0.72158625     0.95400
C1478       C  0.49906697  0.54297230  0.94057128     0.94600
C1479       C  0.49988047  0.54652433  0.72144308     0.86700
C1480       C  0.50060078  0.95664768  0.94171412     0.93000
C1481       C  0.95091216  0.62207817  0.83070248     0.32200
C1482       C  0.54936008  0.62282461  0.83164985     0.32200
C1483       C  0.97503014  0.65401078  0.83640918    -0.04000
C1484       C  0.97531516  0.60188080  0.86391552    -0.04800
C1485       C  0.97434786  0.60983339  0.79075449    -0.04700
C1486       C  0.52518107  0.65475886  0.83716812    -0.04000
C1487       C  0.52500970  0.60285662  0.86511326    -0.04800
C1488       C  0.52588472  0.61032889  0.79181835    -0.04700
C1489       C  0.54019912  0.68533150  0.84130083    -0.30100
N1490       N  0.49969472  0.70352646  0.84365528     0.16400
C1491       C  0.95996960  0.68468022  0.83913399    -0.30100
H1492       H  0.92263103  0.69313137  0.83877683     0.18400
C1493       C  0.53971973  0.58092077  0.89356760    -0.29000
N1494       N  0.49917367  0.56765992  0.91048901     0.15200
C1495       C  0.96066558  0.57978190  0.89217631    -0.29000
C1496       C  0.54021237  0.58635868  0.76590480    -0.29300
N1497       N  0.50001688  0.57272917  0.74923272     0.15700
H1498       H  0.57716894  0.57765248  0.76242688     0.18300
C1499       C  0.96007892  0.58578505  0.76500773    -0.29300
H1500       H  0.92316311  0.57697602  0.76166376     0.18300
H1501       H  0.92333476  0.57306761  0.89890610     0.18300
H1502       H  0.57753370  0.69379027  0.84173369     0.18400
H1503       H  0.57705871  0.57417577  0.90021001     0.18300
C1504       C  0.95042230  0.87749224  0.83130111     0.32200
C1505       C  0.54954389  0.87747632  0.83123893     0.32200
C1506       C  0.97479519  0.84552989  0.83570283    -0.04000
C1507       C  0.97438297  0.89100056  0.79239185    -0.04800
C1508       C  0.97404949  0.89675745  0.86594070    -0.05300
C1509       C  0.52527713  0.84572554  0.83758731    -0.04000
C1510       C  0.52566731  0.88968173  0.79154029    -0.04800
C1511       C  0.52591312  0.89786182  0.86467077    -0.04700
C1512       C  0.54022799  0.81517415  0.84188244    -0.30100
N1513       N  0.49969297  0.79707108  0.84474127     0.16400
C1514       C  0.95991593  0.81482872  0.83830750    -0.30100
H1515       H  0.92262213  0.80629236  0.83811073     0.18400
C1516       C  0.54020953  0.91359496  0.76569907    -0.29000
N1517       N  0.50017134  0.92762291  0.74951175     0.15200
C1518       C  0.95969857  0.91480110  0.76644038    -0.29000
C1519       C  0.54104246  0.91940334  0.89351067    -0.29300
N1520       N  0.50067082  0.93245047  0.91103467     0.15700
H1521       H  0.57847834  0.92587753  0.90023596     0.18300
C1522       C  0.95894403  0.91867187  0.89438869    -0.29300
H1523       H  0.92154174  0.92553834  0.90054700     0.18300
H1524       H  0.92252658  0.92298157  0.76240370     0.18300
H1525       H  0.57752417  0.80664012  0.84181238     0.18400
H1526       H  0.57730598  0.92200636  0.76198917     0.18300
C1527       C  0.79938146  0.87180763  0.82870421     0.32200
C1528       C  0.70048495  0.87168414  0.82892742     0.32200
C1529       C  0.77516440  0.90361068  0.83523522    -0.04000
C1530       C  0.77563509  0.85991533  0.78867584    -0.04800
C1531       C  0.77553317  0.85117515  0.86167423    -0.04700
C1532       C  0.72452501  0.90353891  0.83535139    -0.04000
C1533       C  0.72402924  0.85985400  0.78879980    -0.04800
C1534       C  0.72465759  0.85110987  0.86180579    -0.04700
C1535       C  0.70930432  0.93413727  0.83892206    -0.30100
N1536       N  0.74965961  0.95249509  0.84101942     0.16400
C1537       C  0.79014985  0.93426407  0.83872154    -0.30100
H1538       H  0.82746535  0.94275726  0.83840996     0.18400
C1539       C  0.70963736  0.83609178  0.76260569    -0.29000
N1540       N  0.74977093  0.82247334  0.74589104     0.15200
C1541       C  0.78995345  0.83618786  0.76239886    -0.29000
C1542       C  0.70986914  0.82914239  0.89019899    -0.29300
N1543       N  0.75040876  0.81597592  0.90724992     0.15700
H1544       H  0.67250768  0.82259361  0.89709415     0.18300
C1545       C  0.79070739  0.82924209  0.88996140    -0.29300
H1546       H  0.82816559  0.82278489  0.89662453     0.18300
H1547       H  0.82695075  0.82760083  0.75868406     0.18300
H1548       H  0.67191770  0.94250683  0.83880335     0.18400
H1549       H  0.67266284  0.82741240  0.75909636     0.18300
C1550       C  0.79968220  0.62741508  0.83299600     0.32200
C1551       C  0.70068802  0.62758564  0.83339565     0.32200
C1552       C  0.77534938  0.59559207  0.82683070    -0.04000
C1553       C  0.77626256  0.63946791  0.87307891    -0.04800
C1554       C  0.77554284  0.64793379  0.80000163    -0.04700
C1555       C  0.72467590  0.59566252  0.82704380    -0.04000
C1556       C  0.72467833  0.63953565  0.87328715    -0.04800
C1557       C  0.72464871  0.64803000  0.80021710    -0.04700
C1558       C  0.70949524  0.56498711  0.82427690    -0.30100
N1559       N  0.74986602  0.54660921  0.82226044     0.16400
C1560       C  0.79033546  0.56490090  0.82390588    -0.30100
H1561       H  0.82766240  0.55643004  0.82431804     0.18400
C1562       C  0.71053126  0.66324295  0.89965333    -0.29000
N1563       N  0.75081632  0.67688286  0.91610710     0.15200
C1564       C  0.79084984  0.66317964  0.89930531    -0.29000
C1565       C  0.70962143  0.67004717  0.77194238    -0.29300
N1566       N  0.74998866  0.68322178  0.75460389     0.15700
H1567       H  0.67220686  0.67667051  0.76539138     0.18300
C1568       C  0.79043988  0.66988317  0.77158820    -0.29300
H1569       H  0.82783787  0.67634497  0.76469872     0.18300
H1570       H  0.82788030  0.67176323  0.90278211     0.18300
H1571       H  0.67213600  0.55659010  0.82504120     0.18400
H1572       H  0.67357459  0.67187648  0.90346197     0.18300
C1573       C  0.74953675  0.98526877  0.84261844    -0.11100
C1574       C  0.74985240  0.51379184  0.82162849    -0.12700
C1575       C  0.85298103  0.87325217  0.82925405    -0.11100
C1576       C  0.89683110  0.87592957  0.83050933    -0.12700
C1577       C  0.64691830  0.87307664  0.82956529    -0.11100
C1578       C  0.60309773  0.87585604  0.83062266    -0.12700
C1579       C  0.89725008  0.62339094  0.83137944    -0.11100
C1580       C  0.85334095  0.62595000  0.83235278    -0.12700
C1581       C  0.64699426  0.62640390  0.83313889    -0.11100
C1582       C  0.60303966  0.62409567  0.83231222    -0.12700
C1583       C  0.49958742  0.73621576  0.84566716    -0.11100
C1584       C  0.49954549  0.76436696  0.84604913    -0.12700
loop_ 
_geom_bond_atom_site_label_1 
_geom_bond_atom_site_label_2 
_geom_bond_distance 
_geom_bond_site_symmetry_2 
_ccdc_geom_bond_type 
O1           C11   1.279       .  A
O1         Cu273   2.013       .  S
O2           C12   1.279       .  A
O2           Cu9   2.017       .  S
O3           C13   1.279       .  A
O3         Cu273   2.019       .  S
O4           C14   1.279       .  A
O4           Cu9   2.020       .  S
O5           C14   1.279       .  A
O5         Cu142   2.018       .  S
O6           C13   1.279       .  A
O6          Cu10   2.018       .  S
O7           C12   1.279       .  A
O7         Cu142   2.015       .  S
O8           C11   1.279       .  A
O8          Cu10   2.014       .  S
Cu9         O133   2.016       .  S
Cu9         O135   2.019       .  S
Cu9        Cu142   2.371       .  S
Cu10        O269   2.017   1_554  S
Cu10        O271   2.010   1_554  S
Cu10       Cu273   2.372       .  S
C11         N114   1.437       .  S
C12          N91   1.437       .  S
C13          N88   1.440       .  S
C14         N111   1.439       .  S
O15          C25   1.279       .  A
O15         Cu23   2.019   1_554  S
O16          C26   1.279   1_455  A
O16        Cu551   2.019   1_545  S
O17          C27   1.279       .  A
O17        Cu419   2.022   1_545  S
O18          C28   1.279       .  A
O18        Cu155   2.019       .  S
O19         C820   1.279       .  A
O19        Cu156   2.019       .  S
O20         C819   1.279       .  A
O20        Cu420   2.015   1_554  S
O21         C818   1.280       .  A
O21        Cu552   2.021   1_545  S
O22         C817   1.280       .  A
O22         Cu24   2.021   1_554  S
Cu23        O676   2.020       .  S
Cu23        O413   2.024   1_556  S
Cu23        O282   2.024       .  S
Cu23       Cu816   2.371   1_455  S
Cu24        O283   2.016       .  S
Cu24        O416   2.013   1_556  S
Cu24        O681   2.020       .  S
Cu24       Cu815   2.372       .  S
C25         O814   1.279   1_455  A
C25          N65   1.439       .  S
C26         O813   1.279       .  A
C26          N42   1.439       .  S
C27         O812   1.280   1_455  A
C27          N45   1.441       .  S
C28         O811   1.280   1_455  A
C28          N68   1.440       .  S
C29          C31   1.527       .  S
C29          C33   1.535       .  S
C29          C32   1.540       .  S
C29         C127   1.467       .  S
C30          C34   1.528       .  S
C30          C36   1.537       .  S
C30          C35   1.539       .  S
C30         C130   1.468       .  S
C31          C39   1.378       .  A
C31         C826   1.385       .  A
C32          C43   1.383       .  A
C32         C827   1.409       .  A
C33          C47   1.378       .  A
C33         C828   1.392       .  A
C34          C37   1.378       .  A
C34         C823   1.384   1_455  A
C35          C41   1.382       .  A
C35         C824   1.410   1_455  A
C36          C44   1.380       .  A
C36         C825   1.392   1_455  A
C37          N38   1.356   1_455  A
C37          H50   1.083       .  S
N38         C831   1.356       .  A
N38         C131   1.403       .  S
C39         N830   1.356       .  A
C39          H40   1.083       .  S
C41          N42   1.355   1_455  A
C41          H51   1.083       .  S
N42         C835   1.356       .  A
C43         N834   1.356       .  A
C43          H49   1.083       .  S
C44          N45   1.362       .  A
C44          H46   1.082       .  S
N45         C839   1.361   1_455  A
C47         N837   1.361       .  A
C47          H48   1.082       .  S
C52          C54   1.527       .  S
C52          C56   1.540       .  S
C52          C55   1.534       .  S
C52         C124   1.465       .  S
C53          C57   1.527       .  S
C53          C59   1.542       .  S
C53          C58   1.534       .  S
C53         C126   1.468       .  S
C54          C62   1.378       .  A
C54         C849   1.384       .  A
C55          C66   1.378       .  A
C55         C850   1.391       .  A
C56          C70   1.384       .  A
C56         C851   1.409       .  A
C57          C60   1.378       .  A
C57         C846   1.384   1_455  A
C58          C64   1.377       .  A
C58         C847   1.392   1_455  A
C59          C67   1.384       .  A
C59         C848   1.410   1_455  A
C60          N61   1.356   1_455  A
C60          H73   1.083       .  S
N61         C854   1.356       .  A
N61         C132   1.403       .  S
C62         N853   1.356       .  A
C62          H63   1.083       .  S
C64          N65   1.360       .  A
C64          H74   1.082       .  S
N65         C858   1.362   1_455  A
C66         N857   1.361       .  A
C66          H72   1.082       .  S
C67          N68   1.357       .  A
C67          H69   1.083       .  S
N68         C862   1.355   1_455  A
C70         N860   1.356       .  A
C70          H71   1.083       .  S
C75          C77   1.526       .  S
C75          C79   1.533       .  S
C75          C78   1.540       .  S
C75         C123   1.465       .  S
C76          C80   1.527       .  S
C76          C82   1.534       .  S
C76          C81   1.541       .  S
C76         C125   1.467       .  S
C77          C85   1.377       .  A
C77          C80   1.385       .  A
C78          C89   1.383       .  A
C78          C81   1.409       .  A
C79          C93   1.377       .  A
C79          C82   1.391       .  A
C80          C83   1.377       .  A
C81          C87   1.383       .  A
C82          C90   1.377       .  A
C83          N84   1.355       .  A
C83          H96   1.083       .  S
N84          C85   1.356       .  A
N84         C121   1.401       .  S
C85          H86   1.083       .  S
C87          N88   1.357       .  A
C87          H97   1.083       .  S
N88          C89   1.356       .  A
C89          H95   1.083       .  S
C90          N91   1.361       .  A
C90          H92   1.082       .  S
N91          C93   1.360       .  A
C93          H94   1.082       .  S
C98         C100   1.527       .  S
C98         C102   1.534       .  S
C98         C101   1.539       .  S
C98         C128   1.467       .  S
C99         C103   1.527       .  S
C99         C105   1.534       .  S
C99         C104   1.539       .  S
C99         C129   1.468       .  S
C100        C108   1.377       .  A
C100        C103   1.386       .  A
C101        C112   1.383       .  A
C101        C104   1.408       .  A
C102        C116   1.376       .  A
C102        C105   1.392       .  A
C103        C106   1.377       .  A
C104        C110   1.382       .  A
C105        C113   1.377       .  A
C106        N107   1.356       .  A
C106        H119   1.083       .  S
N107        C108   1.355       .  A
N107        C122   1.401       .  S
C108        H109   1.083       .  S
C110        N111   1.356       .  A
C110        H120   1.083       .  S
N111        C112   1.356       .  A
C112        H118   1.083       .  S
C113        N114   1.361       .  A
C113        H115   1.082       .  S
N114        C116   1.360       .  A
C116        H117   1.082       .  S
C121        C518   1.206       .  T
C122        C517   1.205   1_545  T
C123        C124   1.204       .  T
C125        C126   1.205       .  T
C127        C128   1.205       .  T
C129        C130   1.205       .  T
C131        C132   1.207       .  T
O133        C143   1.279       .  A
O134        C144   1.279       .  A
O134       Cu141   2.013       .  S
O135        C145   1.279       .  A
O136        C146   1.279       .  A
O136       Cu141   2.014       .  S
O137        C146   1.279       .  A
O137       Cu274   2.014       .  S
O138        C145   1.279       .  A
O138       Cu142   2.019       .  S
O139        C144   1.279       .  A
O139       Cu274   2.014       .  S
O140        C143   1.279       .  A
O140       Cu142   2.015       .  S
Cu141       O265   2.011       .  S
Cu141       O267   2.014       .  S
Cu141      Cu274   2.372       .  S
C143        N246   1.438       .  S
C144        N223   1.437       .  S
C145        N220   1.439       .  S
C146        N243   1.437       .  S
O147        C157   1.279   1_455  A
O147       Cu155   2.016       .  S
O148        C158   1.279   1_455  A
O148       Cu683   2.016       .  S
O149        C159   1.279       .  A
O149       Cu551   2.016   1_545  S
O150        C160   1.279       .  A
O150       Cu287   2.016       .  S
O151        C952   1.279       .  A
O151       Cu288   2.021       .  S
O152        C951   1.278       .  A
O152       Cu552   2.015   1_545  S
O153        C950   1.279       .  A
O153       Cu684   2.014   1_545  S
O154        C949   1.280       .  A
O154       Cu156   2.024       .  S
Cu155       O412   2.016       .  S
Cu155       O545   2.017       .  S
Cu155      Cu948   2.371   1_455  S
Cu156       O548   2.019       .  S
Cu156       O417   2.020       .  S
Cu156      Cu947   2.370       .  S
C157        O946   1.279       .  A
C157        N197   1.439       .  S
C158        O945   1.279       .  A
C158        N174   1.439       .  S
C159        O944   1.279   1_455  A
C159        N177   1.438       .  S
C160        O943   1.279   1_455  A
C160        N200   1.438       .  S
C161        C163   1.528       .  S
C161        C165   1.537       .  S
C161        C164   1.539       .  S
C161        C259   1.468       .  S
C162        C166   1.527       .  S
C162        C168   1.536       .  S
C162        C167   1.539       .  S
C162        C262   1.467       .  S
C163        C171   1.379       .  A
C163        C958   1.385       .  A
C164        C175   1.382       .  A
C164        C959   1.408       .  A
C165        C179   1.379       .  A
C165        C960   1.392       .  A
C166        C955   1.385   1_455  A
C166        C169   1.377       .  A
C167        C956   1.408   1_455  A
C167        C173   1.382       .  A
C168        C957   1.392   1_455  A
C168        C176   1.379       .  A
C169        N170   1.356   1_455  A
C169        H182   1.083       .  S
N170        C963   1.356       .  A
N170        C263   1.402       .  S
C171        N962   1.357       .  A
C171        H172   1.083       .  S
C173        N174   1.356   1_455  A
C173        H183   1.083       .  S
N174        C967   1.356       .  A
C175        N966   1.356       .  A
C175        H181   1.083       .  S
C176        N177   1.362       .  A
C176        H178   1.082       .  S
N177        C971   1.360   1_455  A
C179        N969   1.362       .  A
C179        H180   1.082       .  S
C184        C186   1.529       .  S
C184        C188   1.540       .  S
C184        C187   1.537       .  S
C184        C256   1.467       .  S
C185        C189   1.527       .  S
C185        C191   1.539       .  S
C185        C190   1.535       .  S
C185        C258   1.467       .  S
C186        C194   1.379       .  A
C186        C981   1.384       .  A
C187        C198   1.380       .  A
C187        C982   1.392       .  A
C188        C202   1.384       .  A
C188        C983   1.408       .  A
C189        C978   1.384   1_455  A
C189        C192   1.377       .  A
C190        C979   1.392   1_455  A
C190        C196   1.377       .  A
C191        C980   1.410   1_455  A
C191        C199   1.382       .  A
C192        N193   1.355   1_455  A
C192        H205   1.083       .  S
N193        C986   1.356       .  A
N193        C264   1.402       .  S
C194        N985   1.356       .  A
C194        H195   1.083       .  S
C196        N197   1.361   1_455  A
C196        H206   1.082       .  S
N197        C990   1.361       .  A
C198        N989   1.362       .  A
C198        H204   1.082       .  S
C199        N200   1.355       .  A
C199        H201   1.083       .  S
N200        C994   1.355   1_455  A
C202        N992   1.357       .  A
C202        H203   1.083       .  S
C207        C209   1.527       .  S
C207        C211   1.534       .  S
C207        C210   1.539       .  S
C207        C255   1.468       .  S
C208        C212   1.527       .  S
C208        C214   1.534       .  S
C208        C213   1.539       .  S
C208        C257   1.467       .  S
C209        C217   1.377       .  A
C209        C212   1.385       .  A
C210        C221   1.382       .  A
C210        C213   1.408       .  A
C211        C225   1.377       .  A
C211        C214   1.392       .  A
C212        C215   1.377       .  A
C213        C219   1.383       .  A
C214        C222   1.377       .  A
C215        N216   1.355       .  A
C215        H228   1.083       .  S
N216        C217   1.356       .  A
N216        C253   1.401       .  S
C217        H218   1.083       .  S
C219        N220   1.357       .  A
C219        H229   1.083       .  S
N220        C221   1.356       .  A
C221        H227   1.083       .  S
C222        N223   1.360       .  A
C222        H224   1.082       .  S
N223        C225   1.360       .  A
C225        H226   1.082       .  S
C230        C232   1.526       .  S
C230        C234   1.535       .  S
C230        C233   1.539       .  S
C230        C260   1.468       .  S
C231        C235   1.526       .  S
C231        C237   1.534       .  S
C231        C236   1.538       .  S
C231        C261   1.467       .  S
C232        C240   1.376       .  A
C232        C235   1.386       .  A
C233        C244   1.381       .  A
C233        C236   1.408       .  A
C234        C248   1.378       .  A
C234        C237   1.392       .  A
C235        C238   1.376       .  A
C236        C242   1.381       .  A
C237        C245   1.377       .  A
C238        N239   1.355       .  A
C238        H251   1.083       .  S
N239        C240   1.355       .  A
N239        C254   1.400       .  S
C240        H241   1.083       .  S
C242        N243   1.356       .  A
C242        H252   1.083       .  S
N243        C244   1.356       .  A
C244        H250   1.083       .  S
C245        N246   1.360       .  A
C245        H247   1.082       .  S
N246        C248   1.361       .  A
C248        H249   1.082       .  S
C253        C650   1.206       .  T
C254        C649   1.204   1_545  T
C255        C256   1.205       .  T
C257        C258   1.205       .  T
C259        C260   1.206       .  T
C261        C262   1.205       .  T
C263        C264   1.206       .  T
O265        C275   1.278       .  A
O266        C276   1.278       .  A
O266       Cu273   2.012   1_556  S
O267        C277   1.279       .  A
O268        C278   1.279       .  A
O268       Cu273   2.017   1_556  S
O269        C278   1.279       .  A
O270        C277   1.279       .  A
O270       Cu274   2.015       .  S
O271        C276   1.278       .  A
O272        C275   1.278       .  A
O272       Cu274   2.012       .  S
C275        N378   1.435       .  S
C276        N355   1.435       .  S
C277        N352   1.437       .  S
C278        N375   1.438       .  S
O279        C289   1.279       .  A
O279       Cu287   2.016       .  S
O280        C290   1.279   1_455  A
O280       Cu419   2.018   1_546  S
O281        C291   1.278   1_455  A
O281       Cu683   2.009       .  S
O282        C292   1.280       .  A
O283       C1084   1.279       .  A
O284       C1083   1.278       .  A
O284       Cu684   2.010   1_545  S
O285       C1082   1.279       .  A
O285       Cu420   2.016       .  S
O286       C1081   1.279       .  A
O286       Cu288   2.016       .  S
Cu287       O544   2.016       .  S
Cu287       O677   2.015       .  S
Cu287     Cu1080   2.372   1_455  S
Cu288       O680   2.020       .  S
Cu288       O549   2.017       .  S
Cu288     Cu1079   2.371       .  S
C289       O1078   1.279   1_455  A
C289        N329   1.437       .  S
C290       O1077   1.279       .  A
C290        N306   1.439       .  S
C291       O1076   1.279       .  A
C291        N309   1.435       .  S
C292       O1075   1.279   1_455  A
C292        N332   1.440       .  S
C293        C295   1.527       .  S
C293        C297   1.535       .  S
C293        C296   1.539       .  S
C293        C391   1.467       .  S
C294        C298   1.527       .  S
C294        C300   1.535       .  S
C294        C299   1.539       .  S
C294        C394   1.469       .  S
C295        C303   1.377       .  A
C295       C1090   1.384       .  A
C296        C307   1.382       .  A
C296       C1091   1.410       .  A
C297        C311   1.377       .  A
C297       C1092   1.392       .  A
C298       C1087   1.385   1_455  A
C298        C301   1.377       .  A
C299       C1088   1.409   1_455  A
C299        C305   1.382       .  A
C300       C1089   1.392   1_455  A
C300        C308   1.377       .  A
C301        N302   1.356   1_455  A
C301        H314   1.083       .  S
N302       C1095   1.355       .  A
N302        C395   1.400       .  S
C303       N1094   1.355       .  A
C303        H304   1.083       .  S
C305        N306   1.356   1_455  A
C305        H315   1.083       .  S
N306       C1099   1.356       .  A
C307       N1098   1.355       .  A
C307        H313   1.083       .  S
C308        N309   1.361   1_455  A
C308        H310   1.082       .  S
N309       C1103   1.359       .  A
C311       N1101   1.361       .  A
C311        H312   1.082       .  S
C316        C318   1.526       .  S
C316        C320   1.537       .  S
C316        C319   1.533       .  S
C316        C388   1.465       .  S
C317        C321   1.527       .  S
C317        C323   1.539       .  S
C317        C322   1.533       .  S
C317        C390   1.465       .  S
C318        C326   1.377       .  A
C318       C1113   1.385       .  A
C319        C330   1.376       .  A
C319       C1114   1.392       .  A
C320        C334   1.382       .  A
C320       C1115   1.410       .  A
C321       C1110   1.385   1_455  A
C321        C324   1.377       .  A
C322       C1111   1.392   1_455  A
C322        C328   1.376       .  A
C323       C1112   1.410   1_455  A
C323        C331   1.384       .  A
C324        N325   1.355   1_455  A
C324        H337   1.083       .  S
N325       C1118   1.356       .  A
N325        C396   1.401       .  S
C326       N1117   1.355       .  A
C326        H327   1.083       .  S
C328        N329   1.360       .  A
C328        H338   1.082       .  S
N329       C1122   1.361   1_455  A
C330       N1121   1.360       .  A
C330        H336   1.082       .  S
C331        N332   1.355       .  A
C331        H333   1.083       .  S
N332       C1126   1.356   1_455  A
C334       N1124   1.354       .  A
C334        H335   1.083       .  S
C339        C341   1.526       .  S
C339        C343   1.533       .  S
C339        C342   1.537       .  S
C339        C387   1.465       .  S
C340        C344   1.526       .  S
C340        C346   1.533       .  S
C340        C345   1.537       .  S
C340        C389   1.465       .  S
C341        C349   1.376       .  A
C341        C344   1.386       .  A
C342        C353   1.381       .  A
C342        C345   1.406       .  A
C343        C357   1.376       .  A
C343        C346   1.392       .  A
C344        C347   1.376       .  A
C345        C351   1.381       .  A
C346        C354   1.376       .  A
C347        N348   1.355       .  A
C347        H360   1.083       .  S
N348        C349   1.355       .  A
N348        C385   1.399       .  S
C349        H350   1.083       .  S
C351        N352   1.356       .  A
C351        H361   1.083       .  S
N352        C353   1.356       .  A
C353        H359   1.083       .  S
C354        N355   1.360       .  A
C354        H356   1.082       .  S
N355        C357   1.360       .  A
C357        H358   1.082       .  S
C362        C364   1.524       .  S
C362        C366   1.532       .  S
C362        C365   1.538       .  S
C362        C392   1.467       .  S
C363        C367   1.525       .  S
C363        C369   1.533       .  S
C363        C368   1.539       .  S
C363        C393   1.469       .  S
C364        C372   1.374       .  A
C364        C367   1.386       .  A
C365        C376   1.380       .  A
C365        C368   1.408       .  A
C366        C380   1.376       .  A
C366        C369   1.393       .  A
C367        C370   1.375       .  A
C368        C374   1.381       .  A
C369        C377   1.376       .  A
C370        N371   1.354       .  A
C370        H383   1.083       .  S
N371        C372   1.354       .  A
N371        C386   1.396       .  S
C372        H373   1.083       .  S
C374        N375   1.356       .  A
C374        H384   1.083       .  S
N375        C376   1.356       .  A
C376        H382   1.083       .  S
C377        N378   1.360       .  A
C377        H379   1.082       .  S
N378        C380   1.360       .  A
C380        H381   1.082       .  S
C385        C782   1.204       .  T
C386        C781   1.201   1_545  T
C387        C388   1.204       .  T
C389        C390   1.204       .  T
C391        C392   1.205       .  T
C393        C394   1.206       .  T
C395        C396   1.205       .  T
O397        C407   1.279       .  A
O397       Cu669   2.013   1_554  S
O398        C408   1.279       .  A
O398       Cu405   2.016       .  S
O399        C409   1.279       .  A
O399       Cu669   2.014   1_554  S
O400        C410   1.279       .  A
O400       Cu405   2.018       .  S
O401        C410   1.279       .  A
O401       Cu538   2.018       .  S
O402        C409   1.279       .  A
O402       Cu406   2.017   1_554  S
O403        C408   1.279       .  A
O403       Cu538   2.015       .  S
O404        C407   1.279       .  A
O404       Cu406   2.017   1_554  S
Cu405       O529   2.018       .  S
Cu405       O531   2.018       .  S
Cu405      Cu538   2.371       .  S
Cu406       O665   2.016       .  S
Cu406       O667   2.017       .  S
Cu406      Cu669   2.372       .  S
C407        N510   1.437       .  S
C408        N487   1.438       .  S
C409        N484   1.437       .  S
C410        N507   1.439       .  S
O411        C421   1.279       .  A
O411       Cu419   2.017       .  S
O412        C422   1.279   1_455  A
O413        C423   1.280       .  A
O414        C424   1.279   1_455  A
O414       Cu551   2.016       .  S
O415       C1216   1.279       .  A
O415       Cu552   2.016       .  S
O416       C1215   1.279       .  A
O417       C1214   1.279       .  A
O418       C1213   1.279       .  A
O418       Cu420   2.015   1_564  S
Cu419       O678   2.020   1_554  S
Cu419     Cu1212   2.371   1_455  S
Cu420       O679   2.015   1_545  S
Cu420     Cu1211   2.372   1_556  S
C421       O1210   1.279   1_455  A
C421        N461   1.438       .  S
C422       O1209   1.279       .  A
C422        N438   1.438   1_655  S
C423       O1208   1.279   1_455  A
C423        N441   1.441       .  S
C424       O1207   1.279       .  A
C424        N464   1.438       .  S
C425        C427   1.525       .  S
C425        C429   1.537       .  S
C425        C428   1.536       .  S
C425        C523   1.466       .  S
C426        C430   1.526       .  S
C426        C432   1.539       .  S
C426        C431   1.535       .  S
C426        C526   1.464       .  S
C427        C435   1.376       .  A
C427       C1222   1.385       .  A
C428        C439   1.379       .  A
C428       C1223   1.392       .  A
C429        C443   1.380       .  A
C429       C1224   1.410       .  A
C430       C1219   1.384   1_455  A
C430        C433   1.377       .  A
C431       C1220   1.391   1_455  A
C431        C437   1.378       .  A
C432       C1221   1.409   1_455  A
C432        C440   1.383       .  A
C433        N434   1.356       .  A
C433        H446   1.083       .  S
N434       C1227   1.356   1_455  A
N434        C527   1.402       .  S
C435       N1226   1.355       .  A
C435        H436   1.083       .  S
C437        N438   1.361       .  A
C437        H447   1.082       .  S
N438       C1231   1.360   1_455  A
C439       N1230   1.362       .  A
C439        H445   1.082       .  S
C440        N441   1.355       .  A
C440        H442   1.083       .  S
N441       C1235   1.357   1_455  A
C443       N1233   1.354       .  A
C443        H444   1.083       .  S
C448        C450   1.526       .  S
C448        C452   1.534       .  S
C448        C451   1.538       .  S
C448        C520   1.468       .  S
C449        C453   1.527       .  S
C449        C455   1.533       .  S
C449        C454   1.539       .  S
C449        C522   1.465       .  S
C450        C458   1.376       .  A
C450       C1245   1.386       .  A
C451        C462   1.382       .  A
C451       C1246   1.407       .  A
C452        C466   1.377       .  A
C452       C1247   1.394       .  A
C453       C1242   1.384   1_455  A
C453        C456   1.377       .  A
C454       C1243   1.410   1_455  A
C454        C460   1.383       .  A
C455       C1244   1.391   1_455  A
C455        C463   1.376       .  A
C456        N457   1.356       .  A
C456        H469   1.083       .  S
N457       C1250   1.356   1_455  A
N457        C528   1.402       .  S
C458       N1249   1.355       .  A
C458        H459   1.083       .  S
C460        N461   1.356       .  A
C460        H470   1.083       .  S
N461       C1254   1.354   1_455  A
C462       N1253   1.357       .  A
C462        H468   1.083       .  S
C463        N464   1.360   1_455  A
C463        H465   1.082       .  S
N464       C1258   1.361       .  A
C466       N1256   1.360       .  A
C466        H467   1.082       .  S
C471        C473   1.527       .  S
C471        C475   1.539       .  S
C471        C474   1.535       .  S
C471        C519   1.468       .  S
C472        C476   1.526       .  S
C472        C478   1.539       .  S
C472        C477   1.533       .  S
C472        C521   1.465       .  S
C473        C481   1.377       .  A
C473        C476   1.385       .  A
C474        C485   1.377       .  A
C474        C477   1.391       .  A
C475        C489   1.382       .  A
C475        C478   1.411       .  A
C476        C479   1.377       .  A
C477        C483   1.377       .  A
C478        C486   1.382       .  A
C479        N480   1.355       .  A
C479        H492   1.083       .  S
N480        C481   1.356       .  A
N480        C517   1.401       .  S
C481        H482   1.083       .  S
C483        N484   1.360       .  A
C483        H493   1.082       .  S
N484        C485   1.361       .  A
C485        H491   1.082       .  S
C486        N487   1.355       .  A
C486        H488   1.083       .  S
N487        C489   1.355       .  A
C489        H490   1.083       .  S
C494        C496   1.527       .  S
C494        C498   1.539       .  S
C494        C497   1.535       .  S
C494        C524   1.466       .  S
C495        C499   1.526       .  S
C495        C501   1.538       .  S
C495        C500   1.534       .  S
C495        C525   1.464       .  S
C496        C504   1.377       .  A
C496        C499   1.384       .  A
C497        C508   1.378       .  A
C497        C500   1.391       .  A
C498        C512   1.382       .  A
C498        C501   1.410       .  A
C499        C502   1.377       .  A
C500        C506   1.377       .  A
C501        C509   1.382       .  A
C502        N503   1.355       .  A
C502        H515   1.083       .  S
N503        C504   1.356       .  A
N503        C518   1.401       .  S
C504        H505   1.083       .  S
C506        N507   1.361       .  A
C506        H516   1.082       .  S
N507        C508   1.361       .  A
C508        H514   1.082       .  S
C509        N510   1.355       .  A
C509        H511   1.083       .  S
N510        C512   1.355       .  A
C512        H513   1.083       .  S
C519        C520   1.205       .  T
C521        C522   1.204       .  T
C523        C524   1.205       .  T
C525        C526   1.204       .  T
C527        C528   1.206       .  T
O529        C539   1.279       .  A
O530        C540   1.279       .  A
O530       Cu537   2.014       .  S
O531        C541   1.279       .  A
O532        C542   1.279       .  A
O532       Cu537   2.015       .  S
O533        C542   1.279       .  A
O533       Cu670   2.013       .  S
O534        C541   1.279       .  A
O534       Cu538   2.017       .  S
O535        C540   1.279       .  A
O535       Cu670   2.013       .  S
O536        C539   1.279       .  A
O536       Cu538   2.016       .  S
Cu537       O661   2.014       .  S
Cu537       O663   2.013       .  S
Cu537      Cu670   2.372       .  S
C539        N642   1.439       .  S
C540        N619   1.437       .  S
C541        N616   1.438       .  S
C542        N639   1.437       .  S
O543        C553   1.279       .  A
O543       Cu551   2.023       .  S
O544        C554   1.279       .  A
O545        C555   1.279   1_455  A
O546        C556   1.279   1_455  A
O546       Cu683   2.013   1_565  S
O547       C1348   1.278       .  A
O547       Cu684   2.011       .  S
O548       C1347   1.279       .  A
O549       C1346   1.279       .  A
O550       C1345   1.279       .  A
O550       Cu552   2.023       .  S
Cu551     Cu1344   2.371   1_455  S
Cu552     Cu1343   2.371       .  S
C553       O1342   1.280   1_455  A
C553        N593   1.441       .  S
C554       O1341   1.279   1_455  A
C554        N570   1.438       .  S
C555       O1340   1.279       .  A
C555        N573   1.439       .  S
C556       O1339   1.279       .  A
C556        N596   1.437       .  S
C557        C559   1.528       .  S
C557        C561   1.539       .  S
C557        C560   1.536       .  S
C557        C655   1.466       .  S
C558        C562   1.527       .  S
C558        C564   1.539       .  S
C558        C563   1.536       .  S
C558        C658   1.469       .  S
C559        C567   1.379       .  A
C559       C1354   1.384       .  A
C560        C571   1.378       .  A
C560       C1355   1.392       .  A
C561        C575   1.383       .  A
C561       C1356   1.410       .  A
C562       C1351   1.385   1_455  A
C562        C565   1.377       .  A
C563       C1352   1.393   1_455  A
C563        C569   1.378       .  A
C564       C1353   1.409   1_455  A
C564        C572   1.382       .  A
C565        N566   1.356   1_455  A
C565        H578   1.083       .  S
N566       C1359   1.356       .  A
N566        C659   1.402       .  S
C567       N1358   1.356       .  A
C567        H568   1.083       .  S
C569        N570   1.361       .  A
C569        H579   1.082       .  S
N570       C1363   1.361   1_455  A
C571       N1362   1.362       .  A
C571        H577   1.082       .  S
C572        N573   1.355   1_455  A
C572        H574   1.083       .  S
N573       C1367   1.356       .  A
C575       N1365   1.355       .  A
C575        H576   1.083       .  S
C580        C582   1.528       .  S
C580        C584   1.533       .  S
C580        C583   1.541       .  S
C580        C652   1.466       .  S
C581        C585   1.528       .  S
C581        C587   1.534       .  S
C581        C586   1.541       .  S
C581        C654   1.467       .  S
C582        C590   1.379       .  A
C582       C1377   1.384       .  A
C583        C594   1.386       .  A
C583       C1378   1.409       .  A
C584        C598   1.376       .  A
C584       C1379   1.392       .  A
C585       C1374   1.384   1_455  A
C585        C588   1.378       .  A
C586       C1375   1.410   1_455  A
C586        C592   1.385       .  A
C587       C1376   1.392   1_455  A
C587        C595   1.376       .  A
C588        N589   1.356   1_455  A
C588        H601   1.083       .  S
N589       C1382   1.356       .  A
N589        C660   1.402       .  S
C590       N1381   1.356       .  A
C590        H591   1.083       .  S
C592        N593   1.356       .  A
C592        H602   1.083       .  S
N593       C1386   1.355   1_455  A
C594       N1385   1.357       .  A
C594        H600   1.083       .  S
C595        N596   1.360   1_455  A
C595        H597   1.082       .  S
N596       C1390   1.361       .  A
C598       N1388   1.360       .  A
C598        H599   1.082       .  S
C603        C605   1.526       .  S
C603        C607   1.538       .  S
C603        C606   1.534       .  S
C603        C651   1.466       .  S
C604        C608   1.526       .  S
C604        C610   1.538       .  S
C604        C609   1.535       .  S
C604        C653   1.467       .  S
C605        C613   1.377       .  A
C605        C608   1.386       .  A
C606        C617   1.378       .  A
C606        C609   1.392       .  A
C607        C621   1.381       .  A
C607        C610   1.408       .  A
C608        C611   1.376       .  A
C609        C615   1.378       .  A
C610        C618   1.381       .  A
C611        N612   1.355       .  A
C611        H624   1.083       .  S
N612        C613   1.355       .  A
N612        C649   1.400       .  S
C613        H614   1.083       .  S
C615        N616   1.361       .  A
C615        H625   1.082       .  S
N616        C617   1.361       .  A
C617        H623   1.082       .  S
C618        N619   1.355       .  A
C618        H620   1.083       .  S
N619        C621   1.355       .  A
C621        H622   1.083       .  S
C626        C628   1.526       .  S
C626        C630   1.539       .  S
C626        C629   1.533       .  S
C626        C656   1.466       .  S
C627        C631   1.527       .  S
C627        C633   1.541       .  S
C627        C632   1.534       .  S
C627        C657   1.468       .  S
C628        C636   1.377       .  A
C628        C631   1.385       .  A
C629        C640   1.377       .  A
C629        C632   1.391       .  A
C630        C644   1.383       .  A
C630        C633   1.411       .  A
C631        C634   1.377       .  A
C632        C638   1.377       .  A
C633        C641   1.383       .  A
C634        N635   1.356       .  A
C634        H647   1.083       .  S
N635        C636   1.355       .  A
N635        C650   1.401       .  S
C636        H637   1.083       .  S
C638        N639   1.361       .  A
C638        H648   1.082       .  S
N639        C640   1.361       .  A
C640        H646   1.082       .  S
C641        N642   1.356       .  A
C641        H643   1.083       .  S
N642        C644   1.355       .  A
C644        H645   1.083       .  S
C651        C652   1.204       .  T
C653        C654   1.205       .  T
C655        C656   1.205       .  T
C657        C658   1.206       .  T
C659        C660   1.206       .  T
O661        C671   1.279       .  A
O662        C672   1.279       .  A
O662       Cu669   2.014       .  S
O663        C673   1.279       .  A
O664        C674   1.278       .  A
O664       Cu669   2.012       .  S
O665        C674   1.279       .  A
O666        C673   1.278       .  A
O666       Cu670   2.012       .  S
O667        C672   1.279       .  A
O668        C671   1.279       .  A
O668       Cu670   2.014       .  S
C671        N774   1.437       .  S
C672        N751   1.438       .  S
C673        N748   1.436       .  S
C674        N771   1.437       .  S
O675        C685   1.279   1_455  A
O675       Cu683   2.017   1_565  S
O676        C686   1.279       .  A
O677        C687   1.279       .  A
O678        C688   1.280   1_455  A
O679       C1480   1.279       .  A
O680       C1479   1.280       .  A
O681       C1478   1.279       .  A
O682       C1477   1.278       .  A
O682       Cu684   2.015       .  S
Cu683     Cu1476   2.372   1_455  S
Cu684     Cu1475   2.372       .  S
C685       O1474   1.280       .  A
C685        N725   1.439       .  S
C686       O1473   1.279   1_455  A
C686        N702   1.439       .  S
C687       O1472   1.278   1_455  A
C687        N705   1.436       .  S
C688       O1471   1.279       .  A
C688        N728   1.439       .  S
C689        C691   1.525       .  S
C689        C693   1.538       .  S
C689        C692   1.534       .  S
C689        C787   1.465       .  S
C690        C694   1.525       .  S
C690        C696   1.536       .  S
C690        C695   1.534       .  S
C690        C790   1.464       .  S
C691        C699   1.376       .  A
C691       C1486   1.386       .  A
C692        C703   1.378       .  A
C692       C1487   1.392       .  A
C693        C707   1.382       .  A
C693       C1488   1.409       .  A
C694       C1483   1.385   1_455  A
C694        C697   1.376       .  A
C695       C1484   1.392   1_455  A
C695        C701   1.379       .  A
C696       C1485   1.410   1_455  A
C696        C704   1.381       .  A
C697        N698   1.355       .  A
C697        H710   1.083       .  S
N698       C1491   1.356   1_455  A
N698        C791   1.400       .  S
C699       N1490   1.355       .  A
C699        H700   1.083       .  S
C701        N702   1.361       .  A
C701        H711   1.082       .  S
N702       C1495   1.361   1_455  A
C703       N1494   1.361       .  A
C703        H709   1.082       .  S
C704        N705   1.354       .  A
C704        H706   1.083       .  S
N705       C1499   1.356   1_455  A
C707       N1497   1.355       .  A
C707        H708   1.083       .  S
C712        C714   1.525       .  S
C712        C716   1.533       .  S
C712        C715   1.540       .  S
C712        C784   1.466       .  S
C713        C717   1.527       .  S
C713        C719   1.534       .  S
C713        C718   1.539       .  S
C713        C786   1.467       .  S
C714        C722   1.376       .  A
C714       C1509   1.384       .  A
C715        C726   1.383       .  A
C715       C1510   1.410       .  A
C716        C730   1.375       .  A
C716       C1511   1.393       .  A
C717       C1506   1.385   1_455  A
C717        C720   1.377       .  A
C718       C1507   1.406   1_455  A
C718        C724   1.383       .  A
C719       C1508   1.393   1_455  A
C719        C727   1.377       .  A
C720        N721   1.355       .  A
C720        H733   1.083       .  S
N721       C1514   1.355   1_455  A
N721        C792   1.400       .  S
C722       N1513   1.355       .  A
C722        H723   1.083       .  S
C724        N725   1.357   1_455  A
C724        H734   1.083       .  S
N725       C1518   1.356       .  A
C726       N1517   1.356       .  A
C726        H732   1.083       .  S
C727        N728   1.360   1_455  A
C727        H729   1.082       .  S
N728       C1522   1.362       .  A
C730       N1520   1.360       .  A
C730        H731   1.082       .  S
C735        C737   1.524       .  S
C735        C739   1.538       .  S
C735        C738   1.533       .  S
C735        C783   1.466       .  S
C736        C740   1.525       .  S
C736        C742   1.538       .  S
C736        C741   1.534       .  S
C736        C785   1.467       .  S
C737        C745   1.374       .  A
C737        C740   1.386       .  A
C738        C749   1.376       .  A
C738        C741   1.393       .  A
C739        C753   1.381       .  A
C739        C742   1.406       .  A
C740        C743   1.374       .  A
C741        C747   1.377       .  A
C742        C750   1.381       .  A
C743        N744   1.354       .  A
C743        H756   1.083       .  S
N744        C745   1.354       .  A
N744        C781   1.396       .  S
C745        H746   1.083       .  S
C747        N748   1.360       .  A
C747        H757   1.082       .  S
N748        C749   1.360       .  A
C749        H755   1.082       .  S
C750        N751   1.357       .  A
C750        H752   1.083       .  S
N751        C753   1.357       .  A
C753        H754   1.083       .  S
C758        C760   1.526       .  S
C758        C762   1.538       .  S
C758        C761   1.533       .  S
C758        C788   1.465       .  S
C759        C763   1.525       .  S
C759        C765   1.537       .  S
C759        C764   1.533       .  S
C759        C789   1.463       .  S
C760        C768   1.376       .  A
C760        C763   1.385       .  A
C761        C772   1.376       .  A
C761        C764   1.391       .  A
C762        C776   1.381       .  A
C762        C765   1.409       .  A
C763        C766   1.376       .  A
C764        C770   1.377       .  A
C765        C773   1.381       .  A
C766        N767   1.355       .  A
C766        H779   1.083       .  S
N767        C768   1.355       .  A
N767        C782   1.399       .  S
C768        H769   1.083       .  S
C770        N771   1.360       .  A
C770        H780   1.082       .  S
N771        C772   1.360       .  A
C772        H778   1.082       .  S
C773        N774   1.355       .  A
C773        H775   1.083       .  S
N774        C776   1.355       .  A
C776        H777   1.083       .  S
C783        C784   1.205       .  T
C785        C786   1.205       .  T
C787        C788   1.204       .  T
C789        C790   1.203       .  T
C791        C792   1.205       .  T
O793        C803   1.279       .  A
O793      Cu1065   2.020       .  S
O794        C804   1.279       .  A
O794       Cu801   2.015       .  S
O795        C805   1.279       .  A
O795      Cu1065   2.014       .  S
O796        C806   1.278       .  A
O796       Cu801   2.011       .  S
O797        C806   1.279       .  A
O797       Cu934   2.013       .  S
O798        C805   1.279       .  A
O798       Cu802   2.015       .  S
O799        C804   1.279       .  A
O799       Cu934   2.017       .  S
O800        C803   1.279       .  A
O800       Cu802   2.021       .  S
Cu801       O925   2.018       .  S
Cu801       O927   2.011       .  S
Cu801      Cu934   2.372       .  S
Cu802      O1061   2.015   1_554  S
Cu802      O1063   2.022   1_554  S
Cu802     Cu1065   2.371       .  S
C803        N906   1.440       .  S
C804        N883   1.438       .  S
C805        N880   1.437       .  S
C806        N903   1.436       .  S
O807        C817   1.279       .  A
O807       Cu815   2.018   1_554  S
O808        C818   1.279       .  A
O808      Cu1343   2.023   1_545  S
O809        C819   1.279       .  A
O809      Cu1211   2.014       .  S
O810        C820   1.279       .  A
O810       Cu947   2.019       .  S
O811       Cu948   2.020       .  S
O812      Cu1212   2.021   1_545  S
O813      Cu1344   2.020   1_545  S
O814       Cu816   2.016   1_554  S
Cu815      O1468   2.017       .  S
Cu815      O1205   2.009   1_556  S
Cu815      O1074   2.012       .  S
Cu816      O1075   2.019       .  S
Cu816      O1208   2.019   1_556  S
Cu816      O1473   2.016       .  S
C817        N857   1.439       .  S
C818        N834   1.441       .  S
C819        N837   1.437       .  S
C820        N860   1.439       .  S
C821        C823   1.527       .  S
C821        C825   1.535       .  S
C821        C824   1.540       .  S
C821        C919   1.466       .  S
C822        C826   1.527       .  S
C822        C828   1.533       .  S
C822        C827   1.540       .  S
C822        C922   1.465       .  S
C823        C831   1.378       .  A
C824        C835   1.384       .  A
C825        C839   1.378       .  A
C826        C829   1.377       .  A
C827        C833   1.384       .  A
C828        C836   1.376       .  A
C829        N830   1.356       .  A
C829        H842   1.083       .  S
N830        C923   1.402       .  S
C831        H832   1.083       .  S
C833        N834   1.356       .  A
C833        H843   1.083       .  S
C835        H841   1.083       .  S
C836        N837   1.360       .  A
C836        H838   1.082       .  S
C839        H840   1.082       .  S
C844        C846   1.526       .  S
C844        C848   1.540       .  S
C844        C847   1.537       .  S
C844        C916   1.468       .  S
C845        C849   1.527       .  S
C845        C851   1.539       .  S
C845        C850   1.537       .  S
C845        C918   1.467       .  S
C846        C854   1.378       .  A
C847        C858   1.379       .  A
C848        C862   1.383       .  A
C849        C852   1.378       .  A
C850        C856   1.379       .  A
C851        C859   1.382       .  A
C852        N853   1.356       .  A
C852        H865   1.083       .  S
N853        C924   1.402       .  S
C854        H855   1.083       .  S
C856        N857   1.362       .  A
C856        H866   1.082       .  S
C858        H864   1.082       .  S
C859        N860   1.356       .  A
C859        H861   1.083       .  S
C862        H863   1.083       .  S
C867        C869   1.525       .  S
C867        C871   1.539       .  S
C867        C870   1.535       .  S
C867        C915   1.468       .  S
C868        C872   1.525       .  S
C868        C874   1.538       .  S
C868        C873   1.534       .  S
C868        C917   1.467       .  S
C869        C877   1.376       .  A
C869        C872   1.385       .  A
C870        C881   1.377       .  A
C870        C873   1.393       .  A
C871        C885   1.382       .  A
C871        C874   1.409       .  A
C872        C875   1.376       .  A
C873        C879   1.377       .  A
C874        C882   1.382       .  A
C875        N876   1.355       .  A
C875        H888   1.083       .  S
N876        C877   1.355       .  A
N876        C913   1.400       .  S
C877        H878   1.083       .  S
C879        N880   1.361       .  A
C879        H889   1.082       .  S
N880        C881   1.361       .  A
C881        H887   1.082       .  S
C882        N883   1.355       .  A
C882        H884   1.083       .  S
N883        C885   1.356       .  A
C885        H886   1.083       .  S
C890        C892   1.527       .  S
C890        C894   1.539       .  S
C890        C893   1.534       .  S
C890        C920   1.466       .  S
C891        C895   1.526       .  S
C891        C897   1.539       .  S
C891        C896   1.534       .  S
C891        C921   1.465       .  S
C892        C900   1.377       .  A
C892        C895   1.385       .  A
C893        C904   1.376       .  A
C893        C896   1.392       .  A
C894        C908   1.383       .  A
C894        C897   1.408       .  A
C895        C898   1.377       .  A
C896        C902   1.377       .  A
C897        C905   1.382       .  A
C898        N899   1.355       .  A
C898        H911   1.083       .  S
N899        C900   1.356       .  A
N899        C914   1.401       .  S
C900        H901   1.083       .  S
C902        N903   1.360       .  A
C902        H912   1.082       .  S
N903        C904   1.360       .  A
C904        H910   1.082       .  S
C905        N906   1.356       .  A
C905        H907   1.083       .  S
N906        C908   1.356       .  A
C908        H909   1.083       .  S
C913       C1310   1.204       .  T
C914       C1309   1.206   1_545  T
C915        C916   1.206       .  T
C917        C918   1.205       .  T
C919        C920   1.204       .  T
C921        C922   1.204       .  T
C923        C924   1.206       .  T
O925        C935   1.279       .  A
O926        C936   1.279       .  A
O926       Cu933   2.020       .  S
O927        C937   1.278       .  A
O928        C938   1.279       .  A
O928       Cu933   2.014       .  S
O929        C938   1.279       .  A
O929      Cu1066   2.013       .  S
O930        C937   1.278       .  A
O930       Cu934   2.012       .  S
O931        C936   1.279       .  A
O931      Cu1066   2.019       .  S
O932        C935   1.279       .  A
O932       Cu934   2.019       .  S
Cu933      O1057   2.021       .  S
Cu933      O1059   2.015       .  S
Cu933     Cu1066   2.371       .  S
C935       N1038   1.439       .  S
C936       N1015   1.439       .  S
C937       N1012   1.435       .  S
C938       N1035   1.436       .  S
O939        C949   1.280       .  A
O939       Cu947   2.026       .  S
O940        C950   1.279       .  A
O940      Cu1475   2.019   1_545  S
O941        C951   1.279       .  A
O941      Cu1343   2.015   1_545  S
O942        C952   1.279       .  A
O942      Cu1079   2.019       .  S
O943      Cu1080   2.014       .  S
O944      Cu1344   2.015   1_545  S
O945      Cu1476   2.021       .  S
O946       Cu948   2.018       .  S
Cu947      O1204   2.021       .  S
Cu947      O1337   2.021       .  S
Cu948      O1340   2.019       .  S
Cu948      O1209   2.017       .  S
C949        N989   1.443       .  S
C950        N966   1.438       .  S
C951        N969   1.437       .  S
C952        N992   1.440       .  S
C953        C955   1.527       .  S
C953        C957   1.533       .  S
C953        C956   1.539       .  S
C953       C1051   1.465       .  S
C954        C958   1.527       .  S
C954        C960   1.533       .  S
C954        C959   1.539       .  S
C954       C1054   1.465       .  S
C955        C963   1.377       .  A
C956        C967   1.383       .  A
C957        C971   1.376       .  A
C958        C961   1.378       .  A
C959        C965   1.383       .  A
C960        C968   1.376       .  A
C961        N962   1.356       .  A
C961        H974   1.083       .  S
N962       C1055   1.404       .  S
C963        H964   1.083       .  S
C965        N966   1.356       .  A
C965        H975   1.083       .  S
C967        H973   1.083       .  S
C968        N969   1.360       .  A
C968        H970   1.082       .  S
C971        H972   1.082       .  S
C976        C978   1.526       .  S
C976        C980   1.538       .  S
C976        C979   1.535       .  S
C976       C1048   1.466       .  S
C977        C981   1.528       .  S
C977        C983   1.539       .  S
C977        C982   1.537       .  S
C977       C1050   1.465       .  S
C978        C986   1.377       .  A
C979        C990   1.378       .  A
C980        C994   1.382       .  A
C981        C984   1.379       .  A
C982        C988   1.381       .  A
C983        C991   1.383       .  A
C984        N985   1.356       .  A
C984        H997   1.083       .  S
N985       C1056   1.404       .  S
C986        H987   1.083       .  S
C988        N989   1.362       .  A
C988        H998   1.082       .  S
C990        H996   1.082       .  S
C991        N992   1.356       .  A
C991        H993   1.083       .  S
C994        H995   1.083       .  S
C999       C1001   1.526       .  S
C999       C1003   1.539       .  S
C999       C1002   1.533       .  S
C999       C1047   1.466       .  S
C1000      C1004   1.526       .  S
C1000      C1006   1.539       .  S
C1000      C1005   1.533       .  S
C1000      C1049   1.466       .  S
C1001      C1009   1.376       .  A
C1001      C1004   1.385       .  A
C1002      C1013   1.376       .  A
C1002      C1005   1.392       .  A
C1003      C1017   1.382       .  A
C1003      C1006   1.408       .  A
C1004      C1007   1.376       .  A
C1005      C1011   1.376       .  A
C1006      C1014   1.382       .  A
C1007      N1008   1.355       .  A
C1007      H1020   1.083       .  S
N1008      C1009   1.355       .  A
N1008      C1045   1.399       .  S
C1009      H1010   1.083       .  S
C1011      N1012   1.360       .  A
C1011      H1021   1.082       .  S
N1012      C1013   1.360       .  A
C1013      H1019   1.082       .  S
C1014      N1015   1.356       .  A
C1014      H1016   1.083       .  S
N1015      C1017   1.356       .  A
C1017      H1018   1.083       .  S
C1022      C1024   1.526       .  S
C1022      C1026   1.539       .  S
C1022      C1025   1.533       .  S
C1022      C1052   1.465       .  S
C1023      C1027   1.526       .  S
C1023      C1029   1.539       .  S
C1023      C1028   1.533       .  S
C1023      C1053   1.465       .  S
C1024      C1032   1.377       .  A
C1024      C1027   1.385       .  A
C1025      C1036   1.376       .  A
C1025      C1028   1.392       .  A
C1026      C1040   1.383       .  A
C1026      C1029   1.409       .  A
C1027      C1030   1.376       .  A
C1028      C1034   1.376       .  A
C1029      C1037   1.383       .  A
C1030      N1031   1.355       .  A
C1030      H1043   1.083       .  S
N1031      C1032   1.355       .  A
N1031      C1046   1.400       .  S
C1032      H1033   1.083       .  S
C1034      N1035   1.360       .  A
C1034      H1044   1.082       .  S
N1035      C1036   1.360       .  A
C1036      H1042   1.082       .  S
C1037      N1038   1.356       .  A
C1037      H1039   1.083       .  S
N1038      C1040   1.356       .  A
C1040      H1041   1.083       .  S
C1045      C1442   1.204       .  T
C1046      C1441   1.205   1_545  T
C1047      C1048   1.204       .  T
C1049      C1050   1.204       .  T
C1051      C1052   1.204       .  T
C1053      C1054   1.204       .  T
C1055      C1056   1.208       .  T
O1057      C1067   1.280       .  A
O1058      C1068   1.279       .  A
O1058     Cu1065   2.021   1_556  S
O1059      C1069   1.279       .  A
O1060      C1070   1.279       .  A
O1060     Cu1065   2.014   1_556  S
O1061      C1070   1.279       .  A
O1062      C1069   1.279       .  A
O1062     Cu1066   2.014       .  S
O1063      C1068   1.280       .  A
O1064      C1067   1.279       .  A
O1064     Cu1066   2.020       .  S
C1067      N1170   1.440       .  S
C1068      N1147   1.441       .  S
C1069      N1144   1.437       .  S
C1070      N1167   1.437       .  S
O1071      C1081   1.279       .  A
O1071     Cu1079   2.014       .  S
O1072      C1082   1.279       .  A
O1072     Cu1211   2.016   1_556  S
O1073      C1083   1.279       .  A
O1073     Cu1475   2.014   1_545  S
O1074      C1084   1.278       .  A
O1076     Cu1476   2.014       .  S
O1077     Cu1212   2.018   1_546  S
O1078     Cu1080   2.014       .  S
Cu1079     O1336   2.016       .  S
Cu1079     O1469   2.018       .  S
Cu1080     O1472   2.012       .  S
Cu1080     O1341   2.014       .  S
C1081      N1121   1.437       .  S
C1082      N1098   1.438       .  S
C1083      N1101   1.436       .  S
C1084      N1124   1.437       .  S
C1085      C1087   1.525       .  S
C1085      C1089   1.531       .  S
C1085      C1088   1.539       .  S
C1085      C1183   1.465       .  S
C1086      C1090   1.525       .  S
C1086      C1092   1.531       .  S
C1086      C1091   1.539       .  S
C1086      C1186   1.464       .  S
C1087      C1095   1.376       .  A
C1088      C1099   1.383       .  A
C1089      C1103   1.375       .  A
C1090      C1093   1.376       .  A
C1091      C1097   1.383       .  A
C1092      C1100   1.375       .  A
C1093      N1094   1.355       .  A
C1093      H1106   1.083       .  S
N1094      C1187   1.400       .  S
C1095      H1096   1.083       .  S
C1097      N1098   1.355       .  A
C1097      H1107   1.083       .  S
C1099      H1105   1.083       .  S
C1100      N1101   1.359       .  A
C1100      H1102   1.082       .  S
C1103      H1104   1.082       .  S
C1108      C1110   1.527       .  S
C1108      C1112   1.540       .  S
C1108      C1111   1.535       .  S
C1108      C1180   1.467       .  S
C1109      C1113   1.526       .  S
C1109      C1115   1.538       .  S
C1109      C1114   1.535       .  S
C1109      C1182   1.467       .  S
C1110      C1118   1.377       .  A
C1111      C1122   1.377       .  A
C1112      C1126   1.383       .  A
C1113      C1116   1.377       .  A
C1114      C1120   1.377       .  A
C1115      C1123   1.382       .  A
C1116      N1117   1.355       .  A
C1116      H1129   1.083       .  S
N1117      C1188   1.400       .  S
C1118      H1119   1.083       .  S
C1120      N1121   1.361       .  A
C1120      H1130   1.082       .  S
C1122      H1128   1.082       .  S
C1123      N1124   1.354       .  A
C1123      H1125   1.083       .  S
C1126      H1127   1.083       .  S
C1131      C1133   1.528       .  S
C1131      C1135   1.541       .  S
C1131      C1134   1.534       .  S
C1131      C1179   1.467       .  S
C1132      C1136   1.527       .  S
C1132      C1138   1.540       .  S
C1132      C1137   1.534       .  S
C1132      C1181   1.466       .  S
C1133      C1141   1.378       .  A
C1133      C1136   1.384       .  A
C1134      C1145   1.377       .  A
C1134      C1137   1.392       .  A
C1135      C1149   1.384       .  A
C1135      C1138   1.410       .  A
C1136      C1139   1.378       .  A
C1137      C1143   1.377       .  A
C1138      C1146   1.384       .  A
C1139      N1140   1.356       .  A
C1139      H1152   1.083       .  S
N1140      C1141   1.356       .  A
N1140      C1177   1.403       .  S
C1141      H1142   1.083       .  S
C1143      N1144   1.361       .  A
C1143      H1153   1.082       .  S
N1144      C1145   1.361       .  A
C1145      H1151   1.082       .  S
C1146      N1147   1.356       .  A
C1146      H1148   1.083       .  S
N1147      C1149   1.356       .  A
C1149      H1150   1.083       .  S
C1154      C1156   1.527       .  S
C1154      C1158   1.540       .  S
C1154      C1157   1.533       .  S
C1154      C1184   1.464       .  S
C1155      C1159   1.526       .  S
C1155      C1161   1.540       .  S
C1155      C1160   1.533       .  S
C1155      C1185   1.464       .  S
C1156      C1164   1.377       .  A
C1156      C1159   1.384       .  A
C1157      C1168   1.377       .  A
C1157      C1160   1.391       .  A
C1158      C1172   1.383       .  A
C1158      C1161   1.409       .  A
C1159      C1162   1.377       .  A
C1160      C1166   1.377       .  A
C1161      C1169   1.383       .  A
C1162      N1163   1.356       .  A
C1162      H1175   1.083       .  S
N1163      C1164   1.356       .  A
N1163      C1178   1.402       .  S
C1164      H1165   1.083       .  S
C1166      N1167   1.360       .  A
C1166      H1176   1.082       .  S
N1167      C1168   1.361       .  A
C1168      H1174   1.082       .  S
C1169      N1170   1.356       .  A
C1169      H1171   1.083       .  S
N1170      C1172   1.356       .  A
C1172      H1173   1.083       .  S
C1177      C1574   1.207       .  T
C1178      C1573   1.206   1_545  T
C1179      C1180   1.205       .  T
C1181      C1182   1.205       .  T
C1183      C1184   1.204       .  T
C1185      C1186   1.203       .  T
C1187      C1188   1.205       .  T
O1189      C1199   1.279       .  A
O1189     Cu1461   2.015   1_554  S
O1190      C1200   1.279       .  A
O1190     Cu1197   2.015       .  S
O1191      C1201   1.280       .  A
O1191     Cu1461   2.021   1_554  S
O1192      C1202   1.279       .  A
O1192     Cu1197   2.019       .  S
O1193      C1202   1.279       .  A
O1193     Cu1330   2.020       .  S
O1194      C1201   1.279       .  A
O1194     Cu1198   2.019   1_554  S
O1195      C1200   1.279       .  A
O1195     Cu1330   2.015       .  S
O1196      C1199   1.278       .  A
O1196     Cu1198   2.011   1_554  S
Cu1197     O1321   2.014       .  S
Cu1197     O1323   2.016       .  S
Cu1197    Cu1330   2.371       .  S
Cu1198     O1457   2.018       .  S
Cu1198     O1459   2.013       .  S
Cu1198    Cu1461   2.371       .  S
C1199      N1302   1.436       .  S
C1200      N1279   1.437       .  S
C1201      N1276   1.440       .  S
C1202      N1299   1.440       .  S
O1203      C1213   1.279       .  A
O1203     Cu1211   2.015   1_565  S
O1204      C1214   1.280       .  A
O1205      C1215   1.278       .  A
O1206      C1216   1.279       .  A
O1206     Cu1343   2.017       .  S
O1207     Cu1344   2.016       .  S
O1210     Cu1212   2.016       .  S
Cu1211     O1470   2.015   1_544  S
Cu1212     O1471   2.020   1_554  S
C1213      N1253   1.437       .  S
C1214      N1230   1.439       .  S
C1215      N1233   1.435       .  S
C1216      N1256   1.438       .  S
C1217      C1219   1.527       .  S
C1217      C1221   1.542       .  S
C1217      C1220   1.533       .  S
C1217      C1315   1.466       .  S
C1218      C1222   1.526       .  S
C1218      C1224   1.540       .  S
C1218      C1223   1.534       .  S
C1218      C1318   1.469       .  S
C1219      C1227   1.378       .  A
C1220      C1231   1.377       .  A
C1221      C1235   1.384       .  A
C1222      C1225   1.376       .  A
C1223      C1229   1.377       .  A
C1224      C1232   1.381       .  A
C1225      N1226   1.355       .  A
C1225      H1238   1.083       .  S
N1226      C1319   1.399       .  S
C1227      H1228   1.083       .  S
C1229      N1230   1.361       .  A
C1229      H1239   1.082       .  S
C1231      H1237   1.082       .  S
C1232      N1233   1.356       .  A
C1232      H1234   1.083       .  S
C1235      H1236   1.083       .  S
C1240      C1242   1.527       .  S
C1240      C1244   1.535       .  S
C1240      C1243   1.538       .  S
C1240      C1312   1.465       .  S
C1241      C1245   1.526       .  S
C1241      C1247   1.536       .  S
C1241      C1246   1.536       .  S
C1241      C1314   1.468       .  S
C1242      C1250   1.378       .  A
C1243      C1254   1.382       .  A
C1244      C1258   1.378       .  A
C1245      C1248   1.376       .  A
C1246      C1252   1.380       .  A
C1247      C1255   1.379       .  A
C1248      N1249   1.355       .  A
C1248      H1261   1.083       .  S
N1249      C1320   1.399       .  S
C1250      H1251   1.083       .  S
C1252      N1253   1.355       .  A
C1252      H1262   1.083       .  S
C1254      H1260   1.083       .  S
C1255      N1256   1.361       .  A
C1255      H1257   1.082       .  S
C1258      H1259   1.082       .  S
C1263      C1265   1.527       .  S
C1263      C1267   1.533       .  S
C1263      C1266   1.539       .  S
C1263      C1311   1.465       .  S
C1264      C1268   1.527       .  S
C1264      C1270   1.534       .  S
C1264      C1269   1.540       .  S
C1264      C1313   1.467       .  S
C1265      C1273   1.377       .  A
C1265      C1268   1.385       .  A
C1266      C1277   1.383       .  A
C1266      C1269   1.410       .  A
C1267      C1281   1.377       .  A
C1267      C1270   1.391       .  A
C1268      C1271   1.377       .  A
C1269      C1275   1.383       .  A
C1270      C1278   1.377       .  A
C1271      N1272   1.356       .  A
C1271      H1284   1.083       .  S
N1272      C1273   1.355       .  A
N1272      C1309   1.401       .  S
C1273      H1274   1.083       .  S
C1275      N1276   1.356       .  A
C1275      H1285   1.083       .  S
N1276      C1277   1.356       .  A
C1277      H1283   1.083       .  S
C1278      N1279   1.361       .  A
C1278      H1280   1.082       .  S
N1279      C1281   1.361       .  A
C1281      H1282   1.082       .  S
C1286      C1288   1.526       .  S
C1286      C1290   1.533       .  S
C1286      C1289   1.539       .  S
C1286      C1316   1.467       .  S
C1287      C1291   1.527       .  S
C1287      C1293   1.533       .  S
C1287      C1292   1.541       .  S
C1287      C1317   1.469       .  S
C1288      C1296   1.376       .  A
C1288      C1291   1.386       .  A
C1289      C1300   1.381       .  A
C1289      C1292   1.408       .  A
C1290      C1304   1.377       .  A
C1290      C1293   1.392       .  A
C1291      C1294   1.377       .  A
C1292      C1298   1.383       .  A
C1293      C1301   1.377       .  A
C1294      N1295   1.355       .  A
C1294      H1307   1.083       .  S
N1295      C1296   1.355       .  A
N1295      C1310   1.400       .  S
C1296      H1297   1.083       .  S
C1298      N1299   1.358       .  A
C1298      H1308   1.083       .  S
N1299      C1300   1.357       .  A
C1300      H1306   1.083       .  S
C1301      N1302   1.360       .  A
C1301      H1303   1.082       .  S
N1302      C1304   1.360       .  A
C1304      H1305   1.082       .  S
C1311      C1312   1.204       .  T
C1313      C1314   1.205       .  T
C1315      C1316   1.205       .  T
C1317      C1318   1.206       .  T
C1319      C1320   1.204       .  T
O1321      C1331   1.279       .  A
O1322      C1332   1.279       .  A
O1322     Cu1329   2.015       .  S
O1323      C1333   1.279       .  A
O1324      C1334   1.279       .  A
O1324     Cu1329   2.014       .  S
O1325      C1334   1.279       .  A
O1325     Cu1462   2.015       .  S
O1326      C1333   1.279       .  A
O1326     Cu1330   2.017       .  S
O1327      C1332   1.279       .  A
O1327     Cu1462   2.017       .  S
O1328      C1331   1.279       .  A
O1328     Cu1330   2.016       .  S
Cu1329     O1453   2.017       .  S
Cu1329     O1455   2.017       .  S
Cu1329    Cu1462   2.371       .  S
C1331      N1434   1.437       .  S
C1332      N1411   1.437       .  S
C1333      N1408   1.438       .  S
C1334      N1431   1.437       .  S
O1335      C1345   1.280       .  A
O1335     Cu1343   2.022       .  S
O1336      C1346   1.279       .  A
O1337      C1347   1.279       .  A
O1338      C1348   1.279       .  A
O1338     Cu1475   2.015       .  S
O1339     Cu1476   2.016   1_565  S
O1342     Cu1344   2.021       .  S
C1345      N1385   1.441       .  S
C1346      N1362   1.438       .  S
C1347      N1365   1.440       .  S
C1348      N1388   1.436       .  S
C1349      C1351   1.526       .  S
C1349      C1353   1.539       .  S
C1349      C1352   1.534       .  S
C1349      C1447   1.467       .  S
C1350      C1354   1.527       .  S
C1350      C1356   1.540       .  S
C1350      C1355   1.534       .  S
C1350      C1450   1.465       .  S
C1351      C1359   1.377       .  A
C1352      C1363   1.377       .  A
C1353      C1367   1.384       .  A
C1354      C1357   1.378       .  A
C1355      C1361   1.377       .  A
C1356      C1364   1.385       .  A
C1357      N1358   1.356       .  A
C1357      H1370   1.083       .  S
N1358      C1451   1.404       .  S
C1359      H1360   1.083       .  S
C1361      N1362   1.361       .  A
C1361      H1371   1.082       .  S
C1363      H1369   1.082       .  S
C1364      N1365   1.356       .  A
C1364      H1366   1.083       .  S
C1367      H1368   1.083       .  S
C1372      C1374   1.527       .  S
C1372      C1376   1.535       .  S
C1372      C1375   1.539       .  S
C1372      C1444   1.467       .  S
C1373      C1377   1.528       .  S
C1373      C1379   1.535       .  S
C1373      C1378   1.539       .  S
C1373      C1446   1.466       .  S
C1374      C1382   1.378       .  A
C1375      C1386   1.383       .  A
C1376      C1390   1.378       .  A
C1377      C1380   1.379       .  A
C1378      C1384   1.383       .  A
C1379      C1387   1.378       .  A
C1380      N1381   1.356       .  A
C1380      H1393   1.083       .  S
N1381      C1452   1.404       .  S
C1382      H1383   1.083       .  S
C1384      N1385   1.355       .  A
C1384      H1394   1.083       .  S
C1386      H1392   1.083       .  S
C1387      N1388   1.361       .  A
C1387      H1389   1.082       .  S
C1390      H1391   1.082       .  S
C1395      C1397   1.526       .  S
C1395      C1399   1.534       .  S
C1395      C1398   1.539       .  S
C1395      C1443   1.467       .  S
C1396      C1400   1.526       .  S
C1396      C1402   1.533       .  S
C1396      C1401   1.539       .  S
C1396      C1445   1.466       .  S
C1397      C1405   1.377       .  A
C1397      C1400   1.384       .  A
C1398      C1409   1.382       .  A
C1398      C1401   1.412       .  A
C1399      C1413   1.377       .  A
C1399      C1402   1.391       .  A
C1400      C1403   1.377       .  A
C1401      C1407   1.382       .  A
C1402      C1410   1.377       .  A
C1403      N1404   1.355       .  A
C1403      H1416   1.083       .  S
N1404      C1405   1.355       .  A
N1404      C1441   1.400       .  S
C1405      H1406   1.083       .  S
C1407      N1408   1.355       .  A
C1407      H1417   1.083       .  S
N1408      C1409   1.355       .  A
C1409      H1415   1.083       .  S
C1410      N1411   1.361       .  A
C1410      H1412   1.082       .  S
N1411      C1413   1.361       .  A
C1413      H1414   1.082       .  S
C1418      C1420   1.525       .  S
C1418      C1422   1.535       .  S
C1418      C1421   1.538       .  S
C1418      C1448   1.467       .  S
C1419      C1423   1.525       .  S
C1419      C1425   1.533       .  S
C1419      C1424   1.538       .  S
C1419      C1449   1.465       .  S
C1420      C1428   1.376       .  A
C1420      C1423   1.385       .  A
C1421      C1432   1.381       .  A
C1421      C1424   1.409       .  A
C1422      C1436   1.377       .  A
C1422      C1425   1.392       .  A
C1423      C1426   1.376       .  A
C1424      C1430   1.381       .  A
C1425      C1433   1.377       .  A
C1426      N1427   1.355       .  A
C1426      H1439   1.083       .  S
N1427      C1428   1.355       .  A
N1427      C1442   1.399       .  S
C1428      H1429   1.083       .  S
C1430      N1431   1.355       .  A
C1430      H1440   1.083       .  S
N1431      C1432   1.355       .  A
C1432      H1438   1.083       .  S
C1433      N1434   1.360       .  A
C1433      H1435   1.082       .  S
N1434      C1436   1.361       .  A
C1436      H1437   1.082       .  S
C1443      C1444   1.205       .  T
C1445      C1446   1.204       .  T
C1447      C1448   1.205       .  T
C1449      C1450   1.204       .  T
C1451      C1452   1.208       .  T
O1453      C1463   1.279       .  A
O1454      C1464   1.279       .  A
O1454     Cu1461   2.016       .  S
O1455      C1465   1.279       .  A
O1456      C1466   1.279       .  A
O1456     Cu1461   2.021       .  S
O1457      C1466   1.279       .  A
O1458      C1465   1.279       .  A
O1458     Cu1462   2.018       .  S
O1459      C1464   1.278       .  A
O1460      C1463   1.279       .  A
O1460     Cu1462   2.018       .  S
C1463      N1566   1.439       .  S
C1464      N1543   1.437       .  S
C1465      N1540   1.439       .  S
C1466      N1563   1.440       .  S
O1467      C1477   1.279       .  A
O1467     Cu1475   2.018       .  S
O1468      C1478   1.279       .  A
O1469      C1479   1.279       .  A
O1470      C1480   1.279       .  A
O1474     Cu1476   2.021   1_565  S
C1477      N1517   1.438       .  S
C1478      N1494   1.439       .  S
C1479      N1497   1.439       .  S
C1480      N1520   1.437       .  S
C1481      C1483   1.527       .  S
C1481      C1485   1.540       .  S
C1481      C1484   1.535       .  S
C1481      C1579   1.468       .  S
C1482      C1486   1.527       .  S
C1482      C1488   1.541       .  S
C1482      C1487   1.535       .  S
C1482      C1582   1.469       .  S
C1483      C1491   1.377       .  A
C1484      C1495   1.377       .  A
C1485      C1499   1.382       .  A
C1486      C1489   1.376       .  A
C1487      C1493   1.377       .  A
C1488      C1496   1.383       .  A
C1489      N1490   1.355       .  A
C1489      H1502   1.083       .  S
N1490      C1583   1.399       .  S
C1491      H1492   1.083       .  S
C1493      N1494   1.361       .  A
C1493      H1503   1.082       .  S
C1495      H1501   1.082       .  S
C1496      N1497   1.357       .  A
C1496      H1498   1.083       .  S
C1499      H1500   1.083       .  S
C1504      C1506   1.527       .  S
C1504      C1508   1.537       .  S
C1504      C1507   1.537       .  S
C1504      C1576   1.467       .  S
C1505      C1509   1.525       .  S
C1505      C1511   1.536       .  S
C1505      C1510   1.537       .  S
C1505      C1578   1.466       .  S
C1506      C1514   1.377       .  A
C1507      C1518   1.381       .  A
C1508      C1522   1.380       .  A
C1509      C1512   1.376       .  A
C1510      C1516   1.382       .  A
C1511      C1519   1.378       .  A
C1512      N1513   1.355       .  A
C1512      H1525   1.083       .  S
N1513      C1584   1.399       .  S
C1514      H1515   1.083       .  S
C1516      N1517   1.354       .  A
C1516      H1526   1.083       .  S
C1518      H1524   1.083       .  S
C1519      N1520   1.361       .  A
C1519      H1521   1.082       .  S
C1522      H1523   1.082       .  S
C1527      C1529   1.527       .  S
C1527      C1531   1.533       .  S
C1527      C1530   1.540       .  S
C1527      C1575   1.467       .  S
C1528      C1532   1.526       .  S
C1528      C1534   1.534       .  S
C1528      C1533   1.540       .  S
C1528      C1577   1.466       .  S
C1529      C1537   1.378       .  A
C1529      C1532   1.384       .  A
C1530      C1541   1.383       .  A
C1530      C1533   1.411       .  A
C1531      C1545   1.377       .  A
C1531      C1534   1.391       .  A
C1532      C1535   1.377       .  A
C1533      C1539   1.383       .  A
C1534      C1542   1.377       .  A
C1535      N1536   1.356       .  A
C1535      H1548   1.083       .  S
N1536      C1537   1.356       .  A
N1536      C1573   1.402       .  S
C1537      H1538   1.083       .  S
C1539      N1540   1.356       .  A
C1539      H1549   1.083       .  S
N1540      C1541   1.356       .  A
C1541      H1547   1.083       .  S
C1542      N1543   1.361       .  A
C1542      H1544   1.082       .  S
N1543      C1545   1.360       .  A
C1545      H1546   1.082       .  S
C1550      C1552   1.527       .  S
C1550      C1554   1.535       .  S
C1550      C1553   1.541       .  S
C1550      C1580   1.468       .  S
C1551      C1555   1.528       .  S
C1551      C1557   1.535       .  S
C1551      C1556   1.540       .  S
C1551      C1581   1.469       .  S
C1552      C1560   1.378       .  A
C1552      C1555   1.385       .  A
C1553      C1564   1.383       .  A
C1553      C1556   1.410       .  A
C1554      C1568   1.378       .  A
C1554      C1557   1.391       .  A
C1555      C1558   1.378       .  A
C1556      C1562   1.382       .  A
C1557      C1565   1.378       .  A
C1558      N1559   1.356       .  A
C1558      H1571   1.083       .  S
N1559      C1560   1.356       .  A
N1559      C1574   1.403       .  S
C1560      H1561   1.083       .  S
C1562      N1563   1.356       .  A
C1562      H1572   1.083       .  S
N1563      C1564   1.356       .  A
C1564      H1570   1.083       .  S
C1565      N1566   1.361       .  A
C1565      H1567   1.082       .  S
N1566      C1568   1.361       .  A
C1568      H1569   1.082       .  S
C1575      C1576   1.205       .  T
C1577      C1578   1.204       .  T
C1579      C1580   1.206       .  T
C1581      C1582   1.206       .  T
C1583      C1584   1.203       .  T
