geometry optimzed in LAMMPS
_audit_creation_date              2020-11-30 
_audit_creation_method            'lammps2cif' 
_symmetry_space_group_name_H-M    'P1' 
_symmetry_Int_Tables_number       1 
_symmetry_cell_setting            triclinic 
loop_ 
_symmetry_equiv_pos_as_xyz 
  x,y,z 
_cell_length_a                    41.96285919 
_cell_length_b                    41.8788779255299 
_cell_length_c                    26.413747506441048 
_cell_angle_alpha                 90.30246036147969 
_cell_angle_beta                  88.21736425629281 
_cell_angle_gamma                 90.73833473709391 
loop_ 
_atom_site_label 
_atom_site_type_symbol 
_atom_site_fract_x 
_atom_site_fract_y 
_atom_site_fract_z 
_atom_site_charge 
N1          N  0.46123420  0.21067778  0.96492031    -0.00900
C2          C  0.43731599  0.22271249  0.93700907     0.01600
C3          C  0.43876383  0.20912502  0.88914628    -0.21200
C4          C  0.46171590  0.18609884  0.88943749    -0.21400
C5          C  0.47409768  0.18607539  0.93739668     0.01500
H6          H  0.42128794  0.21135013  0.86019516     0.15300
H7          H  0.46481790  0.16788375  0.86063271     0.15400
N8          N  0.45999450  0.21286738  0.52696814    -0.00900
C9          C  0.47063093  0.18824978  0.55527625     0.01600
C10         C  0.45465799  0.18827469  0.60187345    -0.21200
C11         C  0.43191080  0.21139398  0.60041016    -0.21400
C12         C  0.43428327  0.22515090  0.55293024     0.01500
H13         H  0.45548917  0.16992990  0.63054611     0.15300
H14         H  0.41230791  0.21382849  0.62777379     0.15400
N15         N  0.22168012  0.46265370  0.02301256    -0.00900
C16         C  0.24542834  0.47553287  0.05118156     0.01600
C17         C  0.24249374  0.46363161  0.09994083    -0.21200
C18         C  0.21878868  0.44085111  0.10018649    -0.21400
C19         C  0.20761314  0.43904570  0.05152318     0.01500
H20         H  0.25940978  0.46665193  0.12981429     0.15300
H21         H  0.21472977  0.42357250  0.13000393     0.15400
N22         N  0.22454142  0.46381918  0.47829738    -0.00900
C23         C  0.24991921  0.47516722  0.45007380     0.01600
C24         C  0.24990721  0.46101085  0.40266084    -0.21200
C25         C  0.22609501  0.43831402  0.40367465    -0.21400
C26         C  0.21186998  0.43898010  0.45166162     0.01500
H27         H  0.26864317  0.46263014  0.37374226     0.15300
H28         H  0.22356643  0.41965949  0.37542606     0.15400
Zn29       Zn  0.43513980  0.44631734  0.04856450     1.49700
Zn30       Zn  0.44381463  0.49894773  0.96063295     1.49400
Zn31       Zn  0.49884720  0.48953991  0.04130466     1.49100
Zn32       Zn  0.48696103  0.43628593  0.95774639     1.49500
O33         O  0.46599239  0.46781675  0.00212496    -1.81600
O34         O  0.39088313  0.46390878  0.04032075    -0.72200
O35         O  0.46946578  0.04342954  0.96307471    -0.72000
O36         O  0.49183769  0.48245663  0.11631270    -0.71600
O37         O  0.39623731  0.49920926  0.97779178    -0.72200
O38         O  0.44687640  0.45388092  0.12163579    -0.71800
O39         O  0.50734685  0.04057344  0.02020855    -0.72400
O40         O  0.03384186  0.43586276  0.96517835    -0.71800
O41         O  0.44889060  0.48826740  0.88578300    -0.72600
O42         O  0.04119540  0.47375891  0.02244586    -0.72000
O43         O  0.47892777  0.44501164  0.88444444    -0.72400
O44         O  0.46966492  0.39259414  0.97291114    -0.72300
O45         O  0.43365915  0.39812033  0.03536282    -0.72100
C46         C  0.37908535  0.48424896  0.01071972     0.79700
C47         C  0.49123346  0.05639047  0.98899764     0.80200
C48         C  0.47000188  0.46832373  0.14251768     0.79100
C49         C  0.05232246  0.45237010  0.99269577     0.79500
C50         C  0.46338829  0.46612833  0.86146760     0.80600
C51         C  0.44914619  0.38048450  0.00391506     0.79700
Zn52       Zn  0.44908014  0.50081729  0.45999885     1.49700
Zn53       Zn  0.49228211  0.43851716  0.45811268     1.49400
Zn54       Zn  0.49806995  0.48938578  0.54829733     1.49100
Zn55       Zn  0.43479279  0.44625759  0.54224527     1.49500
O56         O  0.46855619  0.46856731  0.50217599    -1.81600
O57         O  0.45724154  0.49186491  0.38572296    -0.72200
O58         O  0.03965481  0.43653391  0.47148292    -0.72000
O59         O  0.50264318  0.03771336  0.53734354    -0.71600
O60         O  0.48902492  0.44980498  0.38382601    -0.72200
O61         O  0.46806244  0.04473780  0.47680009    -0.71800
O62         O  0.04232216  0.47122858  0.53531861    -0.72400
O63         O  0.44048409  0.45200759  0.61778641    -0.71800
O64         O  0.47355074  0.39426450  0.46739591    -0.72600
O65         O  0.48584223  0.47993111  0.62093217    -0.72000
O66         O  0.43495540  0.39871096  0.52688498    -0.72400
O67         O  0.39142921  0.46290619  0.52561526    -0.72300
O68         O  0.40122985  0.50153288  0.47012475    -0.72100
C69         C  0.47346855  0.47110582  0.36122016     0.79700
C70         C  0.05541924  0.45144208  0.50483191     0.80200
C71         C  0.48748360  0.05612017  0.50855127     0.79100
C72         C  0.46249738  0.46535561  0.64277803     0.79500
C73         C  0.45156178  0.38200859  0.49573160     0.80600
C74         C  0.38162243  0.48470458  0.49665661     0.79700
N75         N  0.47247735  0.22337678  0.01144979    -0.00900
C76         C  0.99795242  0.21739348  0.95048104     0.01600
C77         C  0.99906435  0.23216835  0.90375914    -0.21200
C78         C  0.97559508  0.25464724  0.90462748    -0.21400
C79         C  0.45846675  0.24696538  0.03971709     0.01500
H80         H  0.01824496  0.23085822  0.87543604     0.15300
H81         H  0.97371633  0.27353414  0.87705789     0.15400
N82         N  0.47547449  0.22603432  0.48283071    -0.00900
C83         C  0.00106124  0.21169736  0.45317751     0.01600
C84         C  0.00199722  0.22514590  0.40541703    -0.21200
C85         C  0.97893003  0.24801588  0.40519241    -0.21400
C86         C  0.46463354  0.25034872  0.45411604     0.01500
H87         H  0.02088817  0.22279649  0.37679596     0.15300
H88         H  0.97717225  0.26618497  0.37640919     0.15400
N89         N  0.21023307  0.47465789  0.97655998    -0.00900
C90         C  0.18630856  0.46161097  0.94895111     0.01600
C91         C  0.17244013  0.99844604  0.11048043    -0.21200
C92         C  0.19577732  0.02108875  0.10737956    -0.21400
C93         C  0.21858650  0.00993626  0.07316117     0.01500
H94         H  0.14902567  0.00181477  0.12801645     0.15300
H95         H  0.19374637  0.04523315  0.12183108     0.15400
N96         N  0.21104904  0.47838757  0.52281405    -0.00900
C97         C  0.18523313  0.46774376  0.55074819     0.01600
C98         C  0.18363606  0.97684674  0.59255556    -0.21200
C99         C  0.20625555  0.00061418  0.59542516    -0.21400
C100        C  0.22260607  0.00163539  0.54910641     0.01500
H101        H  0.16390578  0.97351336  0.61937154     0.15300
H102        H  0.20665511  0.01869240  0.62491029     0.15400
Zn103      Zn  0.23699266  0.25162698  0.95758379     1.49700
Zn104      Zn  0.19574232  0.18584967  0.95887442     1.49400
Zn105      Zn  0.24921172  0.20002697  0.04052405     1.49100
Zn106      Zn  0.18414130  0.23842145  0.04606699     1.49500
O107        O  0.21629989  0.21893512  0.00049703    -1.81600
O108        O  0.22732940  0.24346195  0.88493999    -0.72200
O109        O  0.21363567  0.14159007  0.97282448    -0.72000
O110        O  0.29287700  0.21692542  0.02142364    -0.71600
O111        O  0.20220518  0.19639616  0.88459351    -0.72200
O112        O  0.28553009  0.25234942  0.96133330    -0.71800
O113        O  0.25046400  0.15295010  0.02874794    -0.72400
O114        O  0.19333440  0.22910536  0.11929323    -0.71800
O115        O  0.14755941  0.18529795  0.97154159    -0.72600
O116        O  0.24065380  0.20622348  0.11542186    -0.72000
O117        O  0.13977695  0.22243049  0.03056575    -0.72400
O118        O  0.18393989  0.28652454  0.03786282    -0.72300
O119        O  0.22039460  0.29493311  0.97669441    -0.72100
C120        C  0.21425817  0.22047590  0.86128874     0.79700
C121        C  0.23538478  0.13269967  0.00226754     0.80200
C122        C  0.30413487  0.23675045  0.98898119     0.79100
C123        C  0.21700759  0.21708631  0.14119581     0.79500
C124        C  0.12878314  0.20173125  0.99991702     0.80600
C125        C  0.19964256  0.30547945  0.00858949     0.79700
Zn126      Zn  0.19444146  0.18927586  0.54640949     1.49700
Zn127      Zn  0.23711185  0.25360064  0.54371778     1.49400
Zn128      Zn  0.24961573  0.19852734  0.46001017     1.49100
Zn129      Zn  0.18624384  0.24045243  0.45912329     1.49500
O130        O  0.21702375  0.22035990  0.50235370    -1.81600
O131        O  0.19827238  0.20133160  0.61958406    -0.72200
O132        O  0.28518367  0.25473174  0.53184676    -0.72000
O133        O  0.25063085  0.15091551  0.47587030    -0.71600
O134        O  0.22884747  0.24496541  0.61802945    -0.72200
O135        O  0.21381182  0.14578312  0.53792350    -0.71800
O136        O  0.29345890  0.21694806  0.47394433    -0.72400
O137        O  0.19740120  0.23265095  0.38595693    -0.71800
O138        O  0.21964734  0.29723681  0.52860429    -0.72600
O139        O  0.24083865  0.20313079  0.38502356    -0.72000
O140        O  0.18374988  0.28821280  0.47031448    -0.72400
O141        O  0.14263609  0.22163592  0.47086952    -0.72300
O142        O  0.14720421  0.18560011  0.53167960    -0.74500
C143        C  0.21305045  0.22356608  0.64244665     0.79700
C144        C  0.30413350  0.23850448  0.50350283     0.80200
C145        C  0.23523659  0.13396757  0.50852180     0.79100
C146        C  0.21899785  0.21734837  0.36167684     0.79500
C147        C  0.19872844  0.30742931  0.49886959     0.80600
C148        C  0.13056151  0.20038003  0.50006321     0.79700
C149        C  0.23763660  0.23806024  0.77759329     0.26100
C150        C  0.21335220  0.22186934  0.80544400    -0.22000
C151        C  0.18832974  0.20717674  0.77941308     0.21000
C152        C  0.18783524  0.20829070  0.72653410     0.26100
C153        C  0.21246521  0.22399751  0.69856072    -0.21900
C154        C  0.23724667  0.23906249  0.72478167     0.21000
F155        F  0.26185126  0.25382473  0.69935000    -0.11900
F156        F  0.26249424  0.25202201  0.80134722    -0.14200
F157        F  0.16297821  0.19429868  0.70283217    -0.14200
F158        F  0.16395029  0.19225133  0.80515991    -0.11900
C159        C  0.19131853  0.22796077  0.22698310     0.26100
C160        C  0.21715108  0.21594667  0.19765503    -0.22000
C161        C  0.24316944  0.20312450  0.22306926     0.21000
C162        C  0.24372644  0.20326656  0.27608861     0.26100
C163        C  0.21828766  0.21617544  0.30528126    -0.21900
C164        C  0.19186640  0.22806778  0.27984923     0.21000
F165        F  0.16614904  0.23978509  0.30594999    -0.11900
F166        F  0.16524231  0.23978611  0.20476442    -0.14200
F167        F  0.26948711  0.19100453  0.29861050    -0.14200
F168        F  0.26836573  0.19047221  0.19683846    -0.11900
C169        C  0.25208164  0.05325222  0.56325828     0.26100
C170        C  0.23525707  0.03307492  0.53016858    -0.22000
C171        C  0.22401849  0.04629950  0.48510257     0.21000
C172        C  0.22723398  0.07903865  0.47560250     0.26100
C173        C  0.24079177  0.09938277  0.51145751    -0.21900
C174        C  0.25422961  0.08621518  0.55449293     0.21000
F175        F  0.26759566  0.10553678  0.58963206    -0.11900
F176        F  0.26393520  0.04144012  0.60649803    -0.14200
F177        F  0.21397147  0.09138168  0.43385820    -0.14200
F178        F  0.20691005  0.02849986  0.45253542    -0.11900
C179        C  0.22784398  0.07450636  0.97877610     0.26100
C180        C  0.24162716  0.09809625  0.00976031    -0.22000
C181        C  0.25759764  0.08815583  0.05311348     0.21000
C182        C  0.25480189  0.05664159  0.06967501     0.26100
C183        C  0.23662233  0.03421194  0.04298446    -0.21900
C184        C  0.22560346  0.04268551  0.99515326     0.21000
F185        F  0.20860637  0.02143615  0.96769049    -0.11900
F186        F  0.21415017  0.08259251  0.93481731    -0.14200
F187        F  0.26534411  0.04942340  0.11623526    -0.14200
F188        F  0.27260719  0.10952604  0.08333652    -0.11900
C189        C  0.04319134  0.21310785  0.51952377     0.26100
C190        C  0.03119414  0.19972331  0.47464671    -0.22000
C191        C  0.05158374  0.18048768  0.44437544     0.21000
C192        C  0.08395258  0.17821829  0.45514321     0.26100
C193        C  0.09615604  0.19408704  0.49736321    -0.21900
C194        C  0.07530590  0.21001578  0.53090296     0.21000
F195        F  0.08676277  0.22560072  0.57187130    -0.11900
F196        F  0.02497429  0.23189062  0.55011342    -0.14200
F197        F  0.10387853  0.16261866  0.42225543    -0.14200
F198        F  0.04075981  0.16618485  0.40186528    -0.11900
C199        C  0.04031223  0.21857149  0.01639013     0.26100
C200        C  0.02821896  0.20544178  0.97157883    -0.22000
C201        C  0.04833380  0.18599292  0.94140487     0.21000
C202        C  0.08056284  0.18263861  0.95261878     0.26100
C203        C  0.09348326  0.19860827  0.99462851    -0.21900
C204        C  0.07241267  0.21501335  0.02797034     0.21000
F205        F  0.08315451  0.22941252  0.07047348    -0.11900
F206        F  0.02193984  0.23707807  0.04728370    -0.14200
F207        F  0.09947858  0.16567635  0.92000350    -0.14200
F208        F  0.03725322  0.17199660  0.89882140    -0.11900
C209        C  0.11382573  0.96034146  0.46440628     0.26100
C210        C  0.08992661  0.44690537  0.50835319    -0.22000
C211        C  0.10208483  0.43306758  0.55183918     0.21000
C212        C  0.13446706  0.43631814  0.56216958     0.26100
C213        C  0.15493919  0.45474697  0.53033127    -0.21900
C214        C  0.14585868  0.96417934  0.47643552     0.21000
F215        F  0.16410368  0.98453605  0.44805250    -0.11900
F216        F  0.10234662  0.97665058  0.42472464    -0.14200
F217        F  0.14526716  0.42384630  0.60568498    -0.14200
F218        F  0.08212908  0.41841279  0.58613030    -0.11900
C219        C  0.93049580  0.33125458  0.45291540     0.26100
C220        C  0.44636832  0.34728783  0.49301544    -0.22000
C221        C  0.46066753  0.32762696  0.52823726     0.21000
C222        C  0.46366807  0.29491237  0.51868899     0.26100
C223        C  0.45181842  0.28120580  0.47399555    -0.21900
C224        C  0.93276655  0.29831137  0.44378537     0.21000
F225        F  0.91825428  0.28549985  0.40303114    -0.11900
F226        F  0.91417499  0.34961369  0.42065412    -0.14200
F227        F  0.48100238  0.27762213  0.55076198    -0.14200
F228        F  0.47459796  0.34063573  0.56937961    -0.11900
C229        C  0.10753569  0.46546848  0.02117898     0.26100
C230        C  0.08755072  0.44807092  0.98882747    -0.22000
C231        C  0.11983278  0.95303410  0.98508029     0.21000
C232        C  0.15083808  0.95704462  0.00287260     0.26100
C233        C  0.15445326  0.45099646  0.96987689    -0.21900
C234        C  0.14038345  0.46706037  0.01160346     0.21000
F235        F  0.15771124  0.48685399  0.04084461    -0.11900
F236        F  0.09525851  0.48289602  0.06049587    -0.14200
F237        F  0.17423721  0.96777592  0.97053442    -0.14200
F238        F  0.11393019  0.96035535  0.93629538    -0.11900
C239        C  0.92455396  0.33518543  0.95672783     0.26100
C240        C  0.44492908  0.34503193  0.00467418    -0.22000
C241        C  0.42439196  0.32977340  0.04055693     0.21000
C242        C  0.42594832  0.29666653  0.04785171     0.26100
C243        C  0.44802171  0.27819832  0.01963332    -0.21900
C244        C  0.92790190  0.30271809  0.94505745     0.21000
F245        F  0.91494990  0.29104654  0.90216539    -0.11900
F246        F  0.90918166  0.35431738  0.92436633    -0.14200
F247        F  0.40752661  0.28293317  0.08509530    -0.14200
F248        F  0.40419471  0.34695718  0.07080425    -0.11900
C249        C  0.43652296  0.47781737  0.77977187     0.26100
C250        C  0.46234406  0.46485081  0.80534700    -0.22000
C251        C  0.48728692  0.45060206  0.77663080     0.21000
C252        C  0.48695601  0.45042267  0.72371152     0.26100
C253        C  0.46144769  0.46378653  0.69845719    -0.21900
C254        C  0.43596158  0.47696269  0.72675564     0.21000
F255        F  0.41521159  0.98760918  0.70091538    -0.11900
F256        F  0.41568225  0.98877100  0.80387028    -0.14200
F257        F  0.01031682  0.43458004  0.69607337    -0.14200
F258        F  0.01111604  0.43589952  0.79870729    -0.11900
C259        C  0.44306445  0.47277487  0.22799867     0.26100
C260        C  0.47125202  0.46915417  0.19846522    -0.22000
C261        C  0.50050499  0.46685360  0.22289600     0.21000
C262        C  0.50135882  0.46733062  0.27593899     0.26100
C263        C  0.47312568  0.47109879  0.30529796    -0.21900
C264        C  0.44405673  0.47419024  0.28083014     0.21000
F265        F  0.41639342  0.47772808  0.30822620    -0.11900
F266        F  0.41454806  0.47567258  0.20564154    -0.14200
F267        F  0.02564187  0.45086793  0.29568450    -0.14200
F268        F  0.02346601  0.45119042  0.19269546    -0.11900
C269        C  0.21042160  0.39620909  0.51894495     0.26100
C270        C  0.19864683  0.40858509  0.47375915    -0.22000
C271        C  0.18008032  0.38824970  0.44353092     0.21000
C272        C  0.17769090  0.35549807  0.45380582     0.26100
C273        C  0.19343562  0.34247766  0.49519969    -0.21900
C274        C  0.20749388  0.36365547  0.52981140     0.21000
F275        F  0.22043015  0.35266721  0.57277493    -0.11900
F276        F  0.22727509  0.41469761  0.55085845    -0.14200
F277        F  0.16211961  0.33637945  0.42079449    -0.14200
F278        F  0.16657858  0.39963445  0.40130418    -0.11900
C279        C  0.30200529  0.50487101  0.44076073     0.26100
C280        C  0.28091584  0.48604062  0.47081605    -0.22000
C281        C  0.29255388  0.47185557  0.51465583     0.21000
C282        C  0.32492394  0.47356545  0.52517709     0.26100
C283        C  0.34669474  0.48921798  0.49181860    -0.21900
C284        C  0.33457128  0.50638770  0.45094705     0.21000
F285        F  0.35692999  0.02923973  0.42803328    -0.11900
F286        F  0.29144271  0.51986368  0.39913659    -0.14200
F287        F  0.33508992  0.45808098  0.56662046    -0.14200
F288        F  0.27336978  0.45383428  0.54537963    -0.11900
C289        C  0.17744567  0.38717020  0.06170356     0.26100
C290        C  0.19725133  0.40728618  0.03148913    -0.22000
C291        C  0.21280923  0.39403361  0.98845954     0.21000
C292        C  0.21127833  0.36132304  0.97882558     0.26100
C293        C  0.19494457  0.34060547  0.01278693    -0.21900
C294        C  0.17654720  0.35412178  0.05287281     0.21000
F295        F  0.15928740  0.33535565  0.08560060    -0.11900
F296        F  0.16084677  0.39922384  0.10225822    -0.14200
F297        F  0.22773384  0.34988524  0.93766315    -0.14200
F298        F  0.23204441  0.41193957  0.95767123    -0.11900
C299        C  0.33038283  0.50560291  0.05527397     0.26100
C300        C  0.34441386  0.48942654  0.01383507    -0.22000
C301        C  0.32481816  0.47455468  0.97858993     0.21000
C302        C  0.29180626  0.47268396  0.98754614     0.26100
C303        C  0.27759002  0.48651838  0.03146446    -0.21900
C304        C  0.29719295  0.50490698  0.06326642     0.21000
F305        F  0.28442315  0.52010407  0.10451353    -0.11900
F306        F  0.36478875  0.01204144  0.10826758    -0.14200
F307        F  0.27457081  0.45483022  0.95530842    -0.14200
F308        F  0.33795151  0.45921962  0.93775942    -0.11900
C309        C  0.50190765  0.13826697  0.56625029     0.26100
C310        C  0.48368842  0.15757325  0.53496909    -0.22000
C311        C  0.47221404  0.14418277  0.48995660     0.21000
C312        C  0.47599576  0.11172417  0.47921318     0.26100
C313        C  0.49071740  0.09151189  0.51376880    -0.21900
C314        C  0.50520526  0.10555166  0.55608481     0.21000
F315        F  0.52054659  0.08739547  0.58983747    -0.11900
F316        F  0.51448433  0.15065065  0.60896095    -0.14200
F317        F  0.95786675  0.09749065  0.43632589    -0.14200
F318        F  0.45483200  0.16160471  0.45810384    -0.11900
C319        C  0.38474377  0.25788406  0.55880362     0.26100
C320        C  0.40476003  0.23750197  0.53008161    -0.22000
C321        C  0.39263898  0.22321251  0.48619727     0.21000
C322        C  0.36048726  0.22621609  0.47471750     0.26100
C323        C  0.33937921  0.24294993  0.50750888    -0.21900
C324        C  0.35237787  0.26047993  0.54793039     0.21000
F325        F  0.33346128  0.27815361  0.57955848    -0.11900
F326        F  0.39596264  0.27316609  0.60021067    -0.14200
F327        F  0.34968225  0.21070934  0.43323058    -0.14200
F328        F  0.41089821  0.20375016  0.45670806    -0.11900
C329        C  0.47309255  0.14269916  0.00375361     0.26100
C330        C  0.48640759  0.15566471  0.95847151    -0.22000
C331        C  0.50672902  0.13625659  0.92826403     0.21000
C332        C  0.51086376  0.10403057  0.94041276     0.26100
C333        C  0.49588582  0.09107729  0.98403512    -0.21900
C334        C  0.47853510  0.11104321  0.01691396     0.21000
F335        F  0.46381782  0.09886664  0.05921024    -0.11900
F336        F  0.45223760  0.15932835  0.03323209    -0.14200
F337        F  0.52758299  0.08493562  0.90779469    -0.14200
F338        F  0.52050138  0.14779230  0.88477576    -0.11900
C339        C  0.39191752  0.21961995  0.00156992     0.26100
C340        C  0.40576206  0.23384444  0.95788478    -0.22000
C341        C  0.38647883  0.25342209  0.92857930     0.21000
C342        C  0.35367911  0.25618729  0.94005557     0.26100
C343        C  0.33952117  0.23982504  0.98178108    -0.21900
C344        C  0.35958457  0.22307462  0.01387631     0.21000
F345        F  0.34768191  0.20799569  0.05588536    -0.11900
F346        F  0.40878140  0.19994181  0.03064382    -0.14200
F347        F  0.33561795  0.27321588  0.90837086    -0.14200
F348        F  0.39900639  0.26819085  0.88671708    -0.11900
N349        N  0.46022868  0.71284664  0.02203600    -0.00900
C350        C  0.43460437  0.72423546  0.04927840     0.01600
C351        C  0.43333588  0.70974509  0.09631334    -0.21200
C352        C  0.45671423  0.68718205  0.09604190    -0.21400
C353        C  0.47178860  0.68799232  0.04875961     0.01500
H354        H  0.41416029  0.71123511  0.12458706     0.15300
H355        H  0.45832587  0.66837950  0.12383981     0.15400
N356        N  0.46459352  0.71353215  0.52082475    -0.00900
C357        C  0.47662874  0.68966203  0.54924010     0.01600
C358        C  0.46227157  0.69066041  0.59715640    -0.21200
C359        C  0.43882982  0.71314714  0.59626151    -0.21400
C360        C  0.43936347  0.72568030  0.54795139     0.01500
H361        H  0.46428646  0.67298803  0.62664313     0.15300
H362        H  0.42000757  0.71576293  0.62493764     0.15400
N363        N  0.23518959  0.95501101  0.06016909    -0.00900
C364        C  0.26456509  0.96090530  0.07971039     0.01600
C365        C  0.27339855  0.93652695  0.11113234    -0.21200
C366        C  0.25010929  0.91382418  0.10941445    -0.21400
C367        C  0.22763528  0.92488072  0.07697451     0.01500
H368        H  0.29637454  0.93361460  0.12807716     0.15300
H369        H  0.25151895  0.88997268  0.12472608     0.15400
N370        N  0.22808882  0.96459753  0.47527003    -0.00900
C371        C  0.25341376  0.97842500  0.44995396     0.01600
C372        C  0.25523656  0.96623067  0.40118532    -0.21200
C373        C  0.23287716  0.94217404  0.39849279    -0.21400
C374        C  0.21757394  0.94013536  0.44556620     0.01500
H375        H  0.27453478  0.96996543  0.37370568     0.15300
H376        H  0.23221600  0.92453032  0.36836991     0.15400
Zn377      Zn  0.44415475  0.94888462  0.04776765     1.49700
Zn378      Zn  0.44998853  0.99962018  0.95763403     1.49400
Zn379      Zn  0.50691640  0.99307516  0.03763852     1.49100
Zn380      Zn  0.49412765  0.93818079  0.95539160     1.49500
O381        O  0.47386360  0.97008797  0.99980618    -1.81600
O382        O  0.40058391  0.96743431  0.04231929    -0.72200
O383        O  0.46115553  0.54370042  0.97340642    -0.72000
O384        O  0.49994860  0.98785439  0.11413973    -0.71600
O385        O  0.40293871  0.00231993  0.97909218    -0.72200
O386        O  0.45653100  0.95692450  0.11984301    -0.71800
O387        O  0.49874933  0.53726873  0.02950794    -0.72400
O388        O  0.04674743  0.93796292  0.97271882    -0.71800
O389        O  0.45261252  0.98747136  0.88363821    -0.72600
O390        O  0.04786345  0.97473107  0.03375363    -0.72000
O391        O  0.48609901  0.94695778  0.88216288    -0.72400
O392        O  0.47546414  0.89468626  0.96986531    -0.72300
O393        O  0.44107144  0.90082704  0.03499277    -0.72100
C394        C  0.38743698  0.98785281  0.01447987     0.79700
C395        C  0.48241524  0.55536805  0.00195331     0.80200
C396        C  0.47869763  0.97284950  0.14056445     0.79100
C397        C  0.06137976  0.95308198  0.00720668     0.79500
C398        C  0.46874110  0.96657683  0.85928380     0.80600
C399        C  0.45501162  0.88331311  0.00171498     0.79700
Zn400      Zn  0.45198044  0.00076197  0.45891345     1.49700
Zn401      Zn  0.49498857  0.93811301  0.45635585     1.49400
Zn402      Zn  0.50215096  0.98940938  0.54546733     1.49100
Zn403      Zn  0.43827923  0.94644841  0.54156253     1.49500
O404        O  0.47185002  0.96850558  0.50058820    -1.81600
O405        O  0.46107597  0.99269293  0.38447984    -0.72200
O406        O  0.04144636  0.93307345  0.46420091    -0.72000
O407        O  0.49931633  0.53753671  0.53896897    -0.71600
O408        O  0.49266843  0.95046093  0.38220819    -0.72200
O409        O  0.46615221  0.54462165  0.47646222    -0.71800
O410        O  0.04714641  0.97002253  0.52419877    -0.72400
O411        O  0.44524257  0.95229552  0.61658120    -0.71800
O412        O  0.47511578  0.89423663  0.46485224    -0.72600
O413        O  0.49091647  0.97980912  0.61824562    -0.72000
O414        O  0.43764677  0.89881809  0.52611489    -0.72400
O415        O  0.39467241  0.96359728  0.52694770    -0.72300
O416        O  0.40402613  0.00103304  0.46936776    -0.72100
C417        C  0.47764564  0.97225842  0.35977633     0.79700
C418        C  0.05865696  0.94864857  0.49478544     0.80200
C419        C  0.48535935  0.55591942  0.50862033     0.79100
C420        C  0.46768157  0.96549905  0.64080316     0.79500
C421        C  0.45343268  0.88208799  0.49391223     0.80600
C422        C  0.38460085  0.98498522  0.49747183     0.79700
N423        N  0.47514347  0.72715185  0.97840270    -0.00900
C424        C  0.00265756  0.71315050  0.94014891     0.01600
C425        C  0.00469711  0.72647689  0.89238698    -0.21200
C426        C  0.98281146  0.75048757  0.89162176    -0.21400
C427        C  0.46439951  0.75281240  0.95269186     0.01500
H428        H  0.02384892  0.72331170  0.86441843     0.15300
H429        H  0.98238973  0.76874764  0.86278303     0.15400
N430        N  0.47825926  0.72642173  0.47509010    -0.00900
C431        C  0.00557432  0.71049269  0.44655115     0.01600
C432        C  0.00732472  0.72312482  0.39818632    -0.21200
C433        C  0.98482813  0.74646195  0.39620385    -0.21400
C434        C  0.46649150  0.75096739  0.44781960     0.01500
H435        H  0.02646664  0.71997067  0.37021211     0.15300
H436        H  0.98387499  0.76416113  0.36655964     0.15400
N437        N  0.21168879  0.97938713  0.05792021    -0.00900
C438        C  0.18168306  0.97400174  0.07819385     0.01600
C439        C  0.18835783  0.47365766  0.90030933    -0.21200
C440        C  0.21175314  0.49679457  0.89958827    -0.21400
C441        C  0.22377558  0.49840612  0.94777777     0.01500
H442        H  0.17100320  0.47039000  0.87113426     0.15300
H443        H  0.21538783  0.51412659  0.86973752     0.15400
N444        N  0.21231675  0.97692621  0.51965551    -0.00900
C445        C  0.18652386  0.96364956  0.54456484     0.01600
C446        C  0.18468380  0.48279296  0.59751330    -0.21200
C447        C  0.20891291  0.50501254  0.59657549    -0.21400
C448        C  0.22378914  0.50332501  0.54917554     0.01500
H449        H  0.16564473  0.48173213  0.62600357     0.15300
H450        H  0.21146987  0.52403499  0.62419138     0.15400
Zn451      Zn  0.24084100  0.75116438  0.95550405     1.49700
Zn452      Zn  0.19918377  0.68589502  0.95107594     1.49400
Zn453      Zn  0.25059673  0.69453767  0.03564916     1.49100
Zn454      Zn  0.18670102  0.73505343  0.04119398     1.49500
O455        O  0.21943239  0.71691989  0.99568101    -1.81600
O456        O  0.23511275  0.74331983  0.88025013    -0.72200
O457        O  0.21693753  0.64202551  0.95950287    -0.72000
O458        O  0.29383257  0.71411406  0.02500291    -0.71600
O459        O  0.20694996  0.69820414  0.87894928    -0.72200
O460        O  0.28872227  0.75328654  0.96925381    -0.71800
O461        O  0.25293063  0.64737712  0.01910947    -0.72400
O462        O  0.19580277  0.72597399  0.11456391    -0.71800
O463        O  0.15128783  0.68355944  0.96232130    -0.72600
O464        O  0.24057019  0.69854806  0.10983034    -0.72000
O465        O  0.14298137  0.71799168  0.02504876    -0.72400
O466        O  0.18571174  0.78300745  0.03415028    -0.72300
O467        O  0.22223480  0.79455279  0.97428266    -0.72100
C468        C  0.22106573  0.72114978  0.85583211     0.79700
C469        C  0.23779187  0.63030457  0.98771340     0.80200
C470        C  0.30564093  0.73689074  0.99860047     0.79100
C471        C  0.21838282  0.71169210  0.13592648     0.79500
C472        C  0.13231934  0.69823793  0.99264063     0.80600
C473        C  0.20102089  0.80339799  0.00690875     0.79700
Zn474      Zn  0.19960922  0.68856279  0.53945937     1.49700
Zn475      Zn  0.24228743  0.75266716  0.53659980     1.49400
Zn476      Zn  0.25513650  0.69759332  0.45341587     1.49100
Zn477      Zn  0.19156964  0.73928670  0.45199552     1.49500
O478        O  0.22228227  0.71935927  0.49537036    -1.81600
O479        O  0.20553313  0.69988501  0.61263339    -0.72200
O480        O  0.29001748  0.75371484  0.52553120    -0.72000
O481        O  0.25658277  0.65022294  0.46970809    -0.71600
O482        O  0.23447916  0.74448249  0.61104508    -0.72200
O483        O  0.21803626  0.64489092  0.52904236    -0.71800
O484        O  0.29867293  0.71630603  0.46723983    -0.72400
O485        O  0.20217989  0.72979555  0.37949689    -0.71800
O486        O  0.22592860  0.79624831  0.51971021    -0.72600
O487        O  0.24632655  0.70129452  0.37846389    -0.72000
O488        O  0.19083413  0.78733639  0.46014806    -0.72400
O489        O  0.14741142  0.72159060  0.46496800    -0.72300
O490        O  0.15187625  0.68590848  0.52630549    -0.74500
C491        C  0.21994400  0.72234372  0.63563207     0.79700
C492        C  0.30908671  0.73773408  0.49721699     0.80200
C493        C  0.24013585  0.63317035  0.50086382     0.79100
C494        C  0.22386095  0.71460255  0.35530977     0.79500
C495        C  0.20599477  0.80655502  0.48845162     0.80600
C496        C  0.13516712  0.70070982  0.49473641     0.79700
C497        C  0.23733405  0.74576341  0.77173896     0.26100
C498        C  0.22085603  0.72174446  0.79947810    -0.22000
C499        C  0.20405132  0.69802594  0.77260930     0.21000
C500        C  0.20370792  0.69834191  0.71980359     0.26100
C501        C  0.22010259  0.72239202  0.69199401    -0.21900
C502        C  0.23706556  0.74602566  0.71876216     0.21000
F503        F  0.25376098  0.76943089  0.69389569    -0.11900
F504        F  0.25396619  0.76908807  0.79564321    -0.14200
F505        F  0.18723348  0.67477786  0.69615211    -0.14200
F506        F  0.18768951  0.67424932  0.79716095    -0.11900
C507        C  0.19264209  0.71966514  0.22220953     0.26100
C508        C  0.21940496  0.71090713  0.19212447    -0.22000
C509        C  0.24750040  0.70220781  0.21642878     0.21000
C510        C  0.24895180  0.70299649  0.26928767     0.26100
C511        C  0.22237118  0.71247454  0.29924479    -0.21900
C512        C  0.19404554  0.72029289  0.27494505     0.21000
F513        F  0.16730672  0.72832707  0.30212145    -0.11900
F514        F  0.16482282  0.72753401  0.20080638    -0.14200
F515        F  0.27672613  0.69516616  0.29087242    -0.14200
F516        F  0.27404990  0.69368198  0.18918086    -0.11900
C517        C  0.25733941  0.55297591  0.55589060     0.26100
C518        C  0.23761927  0.53319090  0.52650509    -0.22000
C519        C  0.22487311  0.54596608  0.48225710     0.21000
C520        C  0.22899674  0.57832796  0.47078072     0.26100
C521        C  0.24531426  0.59860609  0.50364925    -0.21900
C522        C  0.26066300  0.58559169  0.54505722     0.21000
F523        F  0.27667036  0.60491116  0.57725958    -0.11900
F524        F  0.27076661  0.54135472  0.59801504    -0.14200
F525        F  0.21400078  0.59058659  0.43054938    -0.14200
F526        F  0.20539649  0.52831365  0.45298549    -0.11900
C527        C  0.22593282  0.57634752  0.02051818     0.26100
C528        C  0.24264791  0.59570555  0.98558295    -0.22000
C529        C  0.25877487  0.58163647  0.94406680     0.21000
C530        C  0.25611710  0.54867245  0.93557564     0.26100
C531        C  0.23609137  0.52959222  0.96724961    -0.21900
C532        C  0.22224799  0.54370202  0.01120009     0.21000
F533        F  0.20246092  0.52698493  0.04281375    -0.11900
F534        F  0.21027539  0.58964832  0.06100950    -0.14200
F535        F  0.27088809  0.53583493  0.89391636    -0.14200
F536        F  0.27529469  0.60009781  0.90999665    -0.11900
C537        C  0.04710722  0.71214368  0.51409912     0.26100
C538        C  0.03539369  0.69843474  0.46926018    -0.22000
C539        C  0.05621280  0.67935138  0.43938410     0.21000
C540        C  0.08868202  0.67794891  0.44997486     0.26100
C541        C  0.10065481  0.69430516  0.49192642    -0.21900
C542        C  0.07940291  0.70983192  0.52542841     0.21000
F543        F  0.09053487  0.72562155  0.56641876    -0.11900
F544        F  0.02838540  0.73056389  0.54453915    -0.14200
F545        F  0.10887905  0.66264392  0.41712621    -0.14200
F546        F  0.04570054  0.66449770  0.39711591    -0.11900
C547        C  0.04442004  0.71589128  0.00635716     0.26100
C548        C  0.03232031  0.70112099  0.96287402    -0.22000
C549        C  0.05209659  0.67993465  0.93531407     0.21000
C550        C  0.08420530  0.67660444  0.94743473     0.26100
C551        C  0.09714886  0.69441798  0.98762841    -0.21900
C552        C  0.07619331  0.71227378  0.01896429     0.21000
F553        F  0.08683331  0.72847920  0.05991605    -0.11900
F554        F  0.02658696  0.73636508  0.03451246    -0.14200
F555        F  0.10295416  0.65764103  0.91756754    -0.14200
F556        F  0.04090504  0.66423892  0.89427466    -0.11900
C557        C  0.11080508  0.46221833  0.47366446     0.26100
C558        C  0.09301136  0.94284374  0.49637248    -0.22000
C559        C  0.10524749  0.92580732  0.53682653     0.21000
C560        C  0.13746264  0.92907135  0.54840033     0.26100
C561        C  0.15760423  0.95014759  0.52047377    -0.21900
C562        C  0.14295501  0.46654110  0.48479524     0.21000
F563        F  0.16124574  0.48502637  0.45333479    -0.11900
F564        F  0.09935475  0.47609106  0.43169628    -0.14200
F565        F  0.14823432  0.91419307  0.58997473    -0.14200
F566        F  0.08542287  0.90828962  0.56770355    -0.11900
C567        C  0.93659901  0.83125058  0.44215123     0.26100
C568        C  0.44788519  0.84740097  0.49092897    -0.22000
C569        C  0.46310296  0.82745343  0.52470882     0.21000
C570        C  0.46662539  0.79498059  0.51363937     0.26100
C571        C  0.45407089  0.78168802  0.46913089    -0.21900
C572        C  0.93981158  0.79863280  0.43135221     0.21000
F573        F  0.92786415  0.78679389  0.38780037    -0.11900
F574        F  0.92253816  0.85033672  0.40821196    -0.14200
F575        F  0.48501369  0.77762307  0.54407628    -0.14200
F576        F  0.47743807  0.84005357  0.56579286    -0.11900
C577        C  0.10122574  0.93761472  0.06924794     0.26100
C578        C  0.09452369  0.94554200  0.01912145    -0.22000
C579        C  0.10191342  0.42919219  0.95027704     0.21000
C580        C  0.13503974  0.43056510  0.94112554     0.26100
C581        C  0.15643275  0.95419517  0.05494464    -0.21900
C582        C  0.13201123  0.94164193  0.08694081     0.21000
F583        F  0.13696611  0.93759966  0.13706610    -0.11900
F584        F  0.07724002  0.92926989  0.10248842    -0.14200
F585        F  0.14789898  0.41372535  0.90163239    -0.14200
F586        F  0.08388462  0.41104075  0.91915857    -0.11900
C587        C  0.93955712  0.83658627  0.93866312     0.26100
C588        C  0.44799488  0.84882950  0.99907639    -0.22000
C589        C  0.46215841  0.82797356  0.03275686     0.21000
C590        C  0.46433222  0.79536547  0.02112368     0.26100
C591        C  0.45204526  0.78311925  0.97566226    -0.21900
C592        C  0.94036488  0.80380073  0.92790087     0.21000
F593        F  0.92780224  0.79299199  0.88416315    -0.11900
F594        F  0.92696553  0.85676439  0.90477559    -0.14200
F595        F  0.48123582  0.77677088  0.05195100    -0.14200
F596        F  0.47689635  0.83969086  0.07409774    -0.11900
C597        C  0.44124395  0.97681119  0.77769182     0.26100
C598        C  0.46773900  0.96526652  0.80324522    -0.22000
C599        C  0.49367338  0.95286415  0.77455318     0.21000
C600        C  0.49343318  0.95275833  0.72166922     0.26100
C601        C  0.46703810  0.96430860  0.69644633    -0.21900
C602        C  0.44078923  0.97596215  0.72471596     0.21000
F603        F  0.41106214  0.48999098  0.70296632    -0.11900
F604        F  0.41165968  0.49107781  0.80601637    -0.14200
F605        F  0.02919774  0.95519224  0.68928563    -0.14200
F606        F  0.03218458  0.95870095  0.79172793    -0.11900
C607        C  0.45052533  0.97835422  0.22486340     0.26100
C608        C  0.47914230  0.97406033  0.19660992    -0.22000
C609        C  0.50761561  0.96996295  0.22244541     0.21000
C610        C  0.50724941  0.96914566  0.27560946     0.26100
C611        C  0.47857208  0.97344744  0.30373767    -0.21900
C612        C  0.45032090  0.97848751  0.27783297     0.21000
F613        F  0.42222261  0.98248959  0.30387351    -0.11900
F614        F  0.42270095  0.98280927  0.20109839    -0.14200
F615        F  0.02960120  0.96111435  0.29395004    -0.14200
F616        F  0.02890359  0.96165162  0.19094375    -0.11900
C617        C  0.21672297  0.89546455  0.50977522     0.26100
C618        C  0.20586603  0.90823514  0.46423279    -0.22000
C619        C  0.18951950  0.88763218  0.43128974     0.21000
C620        C  0.18770908  0.85469844  0.44045628     0.26100
C621        C  0.20179431  0.84165035  0.48337332    -0.21900
C622        C  0.21462277  0.86273646  0.51926636     0.21000
F623        F  0.22686441  0.85162359  0.56269997    -0.11900
F624        F  0.23147940  0.91394248  0.54414475    -0.14200
F625        F  0.17418032  0.83551019  0.40531161    -0.14200
F626        F  0.17715392  0.89911784  0.38821888    -0.11900
C627        C  0.30462221  0.00987446  0.44717229     0.26100
C628        C  0.28359175  0.98908265  0.47376304    -0.22000
C629        C  0.29526773  0.97226013  0.51512761     0.21000
C630        C  0.32779110  0.97251718  0.52493796     0.26100
C631        C  0.34957391  0.99009106  0.49406729    -0.21900
C632        C  0.33726523  0.01041831  0.45711268     0.21000
F633        F  0.35438460  0.52271886  0.41844473    -0.11900
F634        F  0.29392006  0.02776712  0.40864956    -0.14200
F635        F  0.33799299  0.95372309  0.56276439    -0.14200
F636        F  0.27592946  0.95311285  0.54367326    -0.11900
C637        C  0.18951336  0.87939601  0.08154958     0.26100
C638        C  0.20726938  0.90110260  0.05127675    -0.22000
C639        C  0.21463577  0.89282443  0.00070092     0.21000
C640        C  0.20941106  0.86143304  0.98368836     0.26100
C641        C  0.19632327  0.83813721  0.01698462    -0.21900
C642        C  0.18369137  0.84830624  0.06441154     0.21000
F643        F  0.16919098  0.82732023  0.09697024    -0.11900
F644        F  0.18184359  0.88688417  0.13046971    -0.14200
F645        F  0.21967226  0.85325834  0.93618098    -0.14200
F646        F  0.23097249  0.91363685  0.97008033    -0.11900
C647        C  0.34325915  0.00191855  0.07414543     0.26100
C648        C  0.35331454  0.99398519  0.02459130    -0.22000
C649        C  0.33049069  0.98448796  0.98951416     0.21000
C650        C  0.29878703  0.97857657  0.00588901     0.26100
C651        C  0.28993089  0.98192029  0.05747756    -0.21900
C652        C  0.31182274  0.99595789  0.09049549     0.21000
F653        F  0.30397181  0.99956910  0.14045266    -0.11900
F654        F  0.34894578  0.52061903  0.08946688    -0.14200
F655        F  0.27824239  0.96506681  0.97311608    -0.14200
F656        F  0.33970758  0.97685946  0.94128075    -0.11900
C657        C  0.50623672  0.63853843  0.55988398     0.26100
C658        C  0.48794530  0.65817459  0.52918598    -0.22000
C659        C  0.47413764  0.64434602  0.48626203     0.21000
C660        C  0.47520905  0.61146086  0.47774908     0.26100
C661        C  0.49013864  0.59123993  0.51199629    -0.21900
C662        C  0.50719820  0.60542513  0.55165694     0.21000
F663        F  0.52309740  0.58721843  0.58465770    -0.11900
F664        F  0.52120903  0.65114542  0.60035919    -0.14200
F665        F  0.96632766  0.59759888  0.42874869    -0.14200
F666        F  0.45714538  0.66192139  0.45428587    -0.11900
C667        C  0.38897065  0.75730173  0.55424430     0.26100
C668        C  0.40912704  0.73682895  0.52602796    -0.22000
C669        C  0.39727721  0.72231176  0.48212387     0.21000
C670        C  0.36534466  0.72514509  0.47004631     0.26100
C671        C  0.34414022  0.74224859  0.50194400    -0.21900
C672        C  0.35680354  0.76009969  0.54232876     0.21000
F673        F  0.33776058  0.77850291  0.57263500    -0.11900
F674        F  0.39993634  0.77295351  0.59548962    -0.14200
F675        F  0.35488331  0.70913561  0.42878364    -0.14200
F676        F  0.41563129  0.70306904  0.45263188    -0.11900
C677        C  0.50308774  0.63766922  0.05430242     0.26100
C678        C  0.48323183  0.65725857  0.02626952    -0.22000
C679        C  0.46818218  0.64386641  0.98409168     0.21000
C680        C  0.47003046  0.61114426  0.97366440     0.26100
C681        C  0.48675936  0.59078703  0.00548969    -0.21900
C682        C  0.50483956  0.60481491  0.04419192     0.21000
F683        F  0.52238723  0.58656734  0.07491218    -0.11900
F684        F  0.51876302  0.64994891  0.09432747    -0.14200
F685        F  0.45355864  0.59922689  0.93419153    -0.14200
F686        F  0.44907357  0.66163239  0.95546256    -0.11900
C687        C  0.39355111  0.72583773  0.98086490     0.26100
C688        C  0.40466481  0.73697480  0.02783888    -0.22000
C689        C  0.38348064  0.75448006  0.05952647     0.21000
C690        C  0.35131348  0.75710639  0.04763904     0.26100
C691        C  0.33997873  0.74347483  0.00292565    -0.21900
C692        C  0.36158930  0.72934072  0.96847653     0.21000
F693        F  0.35100941  0.71577312  0.92521257    -0.11900
F694        F  0.41245368  0.70876671  0.94874221    -0.14200
F695        F  0.33065881  0.77063946  0.08177998    -0.14200
F696        F  0.39326652  0.76661268  0.10430293    -0.11900
N697        N  0.95786679  0.21353086  0.02169499    -0.00900
C698        C  0.93192352  0.22396761  0.04911704     0.01600
C699        C  0.92997046  0.20798012  0.09482940    -0.21200
C700        C  0.95349095  0.18553208  0.09361847    -0.21400
C701        C  0.96938947  0.18814014  0.04718435     0.01500
H702        H  0.91036689  0.20873638  0.12246201     0.15300
H703        H  0.95510267  0.16596198  0.12005753     0.15400
N704        N  0.96181771  0.21060342  0.52569515    -0.00900
C705        C  0.97343902  0.18587319  0.55269306     0.01600
C706        C  0.95961775  0.18616888  0.60085448    -0.21200
C707        C  0.93694976  0.20949609  0.60172580    -0.21400
C708        C  0.93720706  0.22306059  0.55399732     0.01500
H709        H  0.96161131  0.16786102  0.62936452     0.15300
H710        H  0.91852101  0.21197870  0.63106560     0.15400
N711        N  0.72302756  0.46404615  0.02094249    -0.00900
C712        C  0.74687413  0.47807442  0.04754835     0.01600
C713        C  0.74542508  0.46667615  0.09670839    -0.21200
C714        C  0.72244133  0.44319498  0.09893197    -0.21400
C715        C  0.71022136  0.44050279  0.05107584     0.01500
H716        H  0.76287050  0.47069892  0.12553249     0.15300
H717        H  0.71940525  0.42624295  0.12945570     0.15400
N718        N  0.72496092  0.46487158  0.48245688    -0.00900
C719        C  0.75040134  0.47659402  0.45481320     0.01600
C720        C  0.75082233  0.46254467  0.40727100    -0.21200
C721        C  0.72713222  0.43970749  0.40761509    -0.21400
C722        C  0.71268243  0.44002634  0.45541374     0.01500
H723        H  0.76967184  0.46445990  0.37858824     0.15300
H724        H  0.72496062  0.42108784  0.37922126     0.15400
Zn725      Zn  0.93309486  0.44888063  0.04587415     1.49700
Zn726      Zn  0.94469203  0.50121877  0.95820907     1.49400
Zn727      Zn  0.99785252  0.49034191  0.04099451     1.49100
Zn728      Zn  0.98587483  0.43751931  0.95653063     1.49500
O729        O  0.96518775  0.46943989  0.00049944    -1.81600
O730        O  0.88976623  0.46803049  0.03559813    -0.72200
O731        O  0.97000132  0.04547501  0.96624468    -0.72000
O732        O  0.99037541  0.48195901  0.11551799    -0.71600
O733        O  0.89715157  0.50350753  0.97368762    -0.72200
O734        O  0.94402763  0.45557726  0.11939631    -0.71800
O735        O  0.00541268  0.04073627  0.02623799    -0.72400
O736        O  0.53490837  0.43510912  0.96600699    -0.71800
O737        O  0.95001011  0.49066266  0.88366171    -0.72600
O738        O  0.54250844  0.47309908  0.02302670    -0.72000
O739        O  0.97845871  0.44640599  0.88303368    -0.72400
O740        O  0.96709649  0.39425687  0.97098018    -0.72300
O741        O  0.93017617  0.40074117  0.03249586    -0.72100
C742        C  0.87909796  0.48888938  0.00574940     0.79700
C743        C  0.98989245  0.05804727  0.99626306     0.80200
C744        C  0.96777009  0.46846096  0.14090830     0.79100
C745        C  0.55349804  0.45153295  0.99342736     0.79500
C746        C  0.96386136  0.46803600  0.85966531     0.80600
C747        C  0.94556538  0.38303863  0.00109593     0.79700
Zn748      Zn  0.94919312  0.49928819  0.45808953     1.49700
Zn749      Zn  0.99228205  0.43685411  0.45642925     1.49400
Zn750      Zn  0.99829105  0.48801683  0.54579292     1.49100
Zn751      Zn  0.93486796  0.44502888  0.54098282     1.49500
O752        O  0.96857034  0.46704540  0.50034302    -1.81600
O753        O  0.95633164  0.48933191  0.38406986    -0.72200
O754        O  0.53934750  0.43726865  0.47462240    -0.72000
O755        O  0.00389759  0.03534870  0.53026268    -0.71600
O756        O  0.98786445  0.44713392  0.38204928    -0.72200
O757        O  0.96842524  0.04217079  0.47105961    -0.71800
O758        O  0.54240228  0.47286991  0.53718553    -0.72400
O759        O  0.94144406  0.45103084  0.61648393    -0.71800
O760        O  0.97419446  0.39245726  0.46741910    -0.72600
O761        O  0.98617369  0.48003572  0.61865113    -0.72000
O762        O  0.93451820  0.39725878  0.52505874    -0.72400
O763        O  0.89152385  0.46290173  0.52614158    -0.72300
O764        O  0.90152221  0.50136655  0.47038869    -0.72100
C765        C  0.97210171  0.46828026  0.35944517     0.79700
C766        C  0.55528953  0.45252091  0.50736545     0.80200
C767        C  0.98829767  0.05368163  0.50199936     0.79100
C768        C  0.96316451  0.46527846  0.64098281     0.79500
C769        C  0.95175276  0.38032682  0.49500276     0.80600
C770        C  0.88187994  0.48516239  0.49786247     0.79700
N771        N  0.97232300  0.22835907  0.97814002    -0.00900
C772        C  0.49565849  0.21093985  0.04029542     0.01600
C773        C  0.49272105  0.22330421  0.08887000    -0.21200
C774        C  0.46935728  0.24584706  0.08852602    -0.21400
C775        C  0.96047446  0.25327432  0.95188624     0.01500
H776        H  0.50934159  0.22044504  0.11904492     0.15300
H777        H  0.46509369  0.26333566  0.11819315     0.15400
N778        N  0.97590266  0.22385801  0.48055958    -0.00900
C779        C  0.50138092  0.21392896  0.45718570     0.01600
C780        C  0.50370048  0.22740686  0.40949790    -0.21200
C781        C  0.48065956  0.25016908  0.40753732    -0.21400
C782        C  0.96427533  0.24827238  0.45284476     0.01500
H783        H  0.52337586  0.22508039  0.38224014     0.15300
H784        H  0.47974923  0.26833270  0.37859159     0.15400
N785        N  0.71072192  0.47460065  0.97414324    -0.00900
C786        C  0.68711404  0.45989976  0.94786551     0.01600
C787        C  0.69703703  0.97976153  0.89647465    -0.21200
C788        C  0.72019393  0.00304669  0.89864601    -0.21400
C789        C  0.73193537  0.00259136  0.94702504     0.01500
H790        H  0.67981012  0.97794398  0.86685336     0.15300
H791        H  0.72351555  0.02186833  0.87109435     0.15400
N792        N  0.71049818  0.47925983  0.52631758    -0.00900
C793        C  0.68512172  0.46726073  0.55386609     0.01600
C794        C  0.68774836  0.97594270  0.60010407    -0.21200
C795        C  0.71055939  0.99964322  0.60167667    -0.21400
C796        C  0.72508598  0.00132285  0.55397059     0.01500
H797        H  0.66893418  0.97245356  0.62850803     0.15300
H798        H  0.71203679  0.01735277  0.63159334     0.15400
Zn799      Zn  0.73776968  0.25198884  0.96576454     1.49700
Zn800      Zn  0.69500803  0.18808240  0.96436674     1.49400
Zn801      Zn  0.74723969  0.19793725  0.04842637     1.49100
Zn802      Zn  0.68354605  0.23973147  0.05246327     1.49500
O803        O  0.71581532  0.21947357  0.00781651    -1.81600
O804        O  0.73100285  0.24416957  0.89155804    -0.72200
O805        O  0.71388110  0.14449384  0.97293078    -0.72000
O806        O  0.79078724  0.21727703  0.03620733    -0.71600
O807        O  0.70171075  0.19983195  0.89140697    -0.72200
O808        O  0.78554655  0.25376002  0.97626792    -0.71800
O809        O  0.75011955  0.15063096  0.03209484    -0.72400
O810        O  0.69309513  0.23215961  0.12588265    -0.71800
O811        O  0.64716545  0.18565045  0.97788013    -0.72600
O812        O  0.73683959  0.20304853  0.12255306    -0.72000
O813        O  0.63964047  0.22175578  0.03912808    -0.72400
O814        O  0.68269697  0.28783095  0.04242062    -0.72300
O815        O  0.72060648  0.29517080  0.98322035    -0.72100
C816        C  0.71619879  0.22235495  0.86773289     0.79700
C817        C  0.73534528  0.13326394  0.00058632     0.80200
C818        C  0.80262005  0.23852032  0.00669314     0.79100
C819        C  0.71506061  0.21739400  0.14796794     0.79500
C820        C  0.62890150  0.20086145  0.00861208     0.80600
C821        C  0.69932022  0.30630415  0.01358392     0.79700
Zn822      Zn  0.69442152  0.18950223  0.55216005     1.49700
Zn823      Zn  0.73857049  0.25292729  0.54872283     1.49400
Zn824      Zn  0.74927505  0.19796178  0.46503888     1.49100
Zn825      Zn  0.68647911  0.24083577  0.46574828     1.49500
O826        O  0.71731904  0.22016678  0.50798854    -1.81600
O827        O  0.69996130  0.20130020  0.62498936    -0.72200
O828        O  0.78653716  0.25188398  0.53776019    -0.72000
O829        O  0.74895176  0.15045441  0.47952822    -0.71600
O830        O  0.73030155  0.24498879  0.62313246    -0.72200
O831        O  0.71295771  0.14572267  0.54288791    -0.71800
O832        O  0.79380853  0.21406670  0.47972047    -0.72400
O833        O  0.69724681  0.23340848  0.39263392    -0.71800
O834        O  0.72299407  0.29716669  0.53222707    -0.72600
O835        O  0.74079620  0.20402984  0.39048538    -0.72000
O836        O  0.68540155  0.28855513  0.47653800    -0.72400
O837        O  0.64246394  0.22290391  0.47795933    -0.72300
O838        O  0.64671890  0.18686727  0.53881616    -0.74500
C839        C  0.71493988  0.22342532  0.64781300     0.79700
C840        C  0.80505622  0.23497097  0.50982596     0.80200
C841        C  0.73383338  0.13372299  0.51268298     0.79100
C842        C  0.71893914  0.21862878  0.36779336     0.79500
C843        C  0.70175557  0.30765237  0.50329529     0.80600
C844        C  0.63012102  0.20192445  0.50741160     0.79700
C845        C  0.73003240  0.24839580  0.78385088     0.26100
C846        C  0.71578087  0.22296693  0.81147083    -0.22000
C847        C  0.70116094  0.19787637  0.78457712     0.21000
C848        C  0.70075900  0.19818240  0.73179936     0.26100
C849        C  0.71490271  0.22362266  0.70411284    -0.21900
C850        C  0.72962422  0.24870441  0.73092208     0.21000
F851        F  0.74379285  0.27369728  0.70615203    -0.11900
F852        F  0.74446850  0.27316330  0.80780917    -0.14200
F853        F  0.68675685  0.17308220  0.70803228    -0.14200
F854        F  0.68734006  0.17259314  0.80907889    -0.11900
C855        C  0.69518838  0.23698446  0.23335862     0.26100
C856        C  0.71572383  0.21729702  0.20424676    -0.22000
C857        C  0.73749910  0.19810128  0.22958675     0.21000
C858        C  0.73871975  0.19862510  0.28243276     0.26100
C859        C  0.71823251  0.21836938  0.31150966    -0.21900
C860        C  0.69646714  0.23757474  0.28612882     0.21000
F861        F  0.67638645  0.25736418  0.31213730    -0.11900
F862        F  0.67396868  0.25617870  0.21098342    -0.14200
F863        F  0.75985716  0.17941101  0.30492896    -0.14200
F864        F  0.75765131  0.17846909  0.20343546    -0.11900
C865        C  0.75380921  0.05356935  0.56630515     0.26100
C866        C  0.73661902  0.03299787  0.53434720    -0.22000
C867        C  0.72419209  0.04588362  0.48983292     0.21000
C868        C  0.72584061  0.07867651  0.48064714     0.26100
C869        C  0.73960229  0.09929496  0.51577716    -0.21900
C870        C  0.75472712  0.08655167  0.55760711     0.21000
F871        F  0.76873606  0.10624329  0.59157230    -0.11900
F872        F  0.76753296  0.04201750  0.60821572    -0.14200
F873        F  0.71117863  0.09062417  0.43984994    -0.14200
F874        F  0.70782466  0.02758974  0.45711113    -0.11900
C875        C  0.72742072  0.07711704  0.02822699     0.26100
C876        C  0.74264546  0.09912473  0.99567368    -0.22000
C877        C  0.76064252  0.08799355  0.95374832     0.21000
C878        C  0.76092291  0.05534110  0.94188638     0.26100
C879        C  0.74220067  0.03345474  0.97077234    -0.21900
C880        C  0.72708412  0.04458770  0.01593699     0.21000
F881        F  0.70933162  0.02484423  0.04602500    -0.11900
F882        F  0.71030753  0.08745400  0.06947699    -0.14200
F883        F  0.77721331  0.04548315  0.89954188    -0.14200
F884        F  0.77610857  0.10900642  0.92234080    -0.11900
C885        C  0.54248667  0.21552184  0.52504500     0.26100
C886        C  0.53083637  0.20164971  0.48032981    -0.22000
C887        C  0.55132311  0.18190365  0.45114719     0.21000
C888        C  0.58355813  0.17954593  0.46266176     0.26100
C889        C  0.59559423  0.19591378  0.50455728    -0.21900
C890        C  0.57455859  0.21245196  0.53714206     0.21000
F891        F  0.58581555  0.22852991  0.57777530    -0.11900
F892        F  0.52400666  0.23484165  0.55441213    -0.14200
F893        F  0.60358763  0.16346589  0.43054943    -0.14200
F894        F  0.54079245  0.16734915  0.40864174    -0.11900
C895        C  0.54517660  0.17946301  0.05254265     0.26100
C896        C  0.52739919  0.19934623  0.02136482    -0.22000
C897        C  0.54314860  0.21391072  0.97938066     0.21000
C898        C  0.57628667  0.21207581  0.97286596     0.26100
C899        C  0.59420347  0.19552976  0.00783798    -0.21900
C900        C  0.57840316  0.17795161  0.04625362     0.21000
F901        F  0.59533785  0.16104353  0.07963690    -0.11900
F902        F  0.53060433  0.16354488  0.09166367    -0.14200
F903        F  0.59118168  0.22891918  0.93502097    -0.14200
F904        F  0.52721398  0.23233657  0.94705734    -0.11900
C905        C  0.61375002  0.96397445  0.47572932     0.26100
C906        C  0.58987867  0.44810406  0.51009497    -0.22000
C907        C  0.60259888  0.43086550  0.55001301     0.21000
C908        C  0.63504232  0.43397045  0.56066162     0.26100
C909        C  0.65502162  0.45482650  0.53205105    -0.21900
C910        C  0.64601558  0.96687547  0.48659260     0.21000
F911        F  0.66412133  0.98718777  0.45810436    -0.11900
F912        F  0.60208172  0.98133791  0.43733916    -0.14200
F913        F  0.64639227  0.41872011  0.60146495    -0.14200
F914        F  0.58315401  0.41291561  0.58083614    -0.11900
C915        C  0.43193852  0.33347441  0.45088822     0.26100
C916        C  0.94691100  0.34546286  0.49284912    -0.22000
C917        C  0.96351388  0.32610651  0.52578397     0.21000
C918        C  0.96619542  0.29333490  0.51635818     0.26100
C919        C  0.95215696  0.27921780  0.47371906    -0.21900
C920        C  0.43410487  0.30056751  0.44193990     0.21000
F921        F  0.42137653  0.28806517  0.39943352    -0.11900
F922        F  0.41766835  0.35217425  0.41664302    -0.14200
F923        F  0.98528143  0.27637491  0.54617701    -0.14200
F924        F  0.97970250  0.33947610  0.56443562    -0.11900
C925        C  0.60891305  0.46374941  0.02206604     0.26100
C926        C  0.58867273  0.44677785  0.98959054    -0.22000
C927        C  0.60996679  0.93461390  0.93993777     0.21000
C928        C  0.64304263  0.93620502  0.93039057     0.26100
C929        C  0.65548901  0.44929436  0.96986810    -0.21900
C930        C  0.64173093  0.46537052  0.01190857     0.21000
F931        F  0.65926993  0.48516352  0.04090944    -0.11900
F932        F  0.59688356  0.48070331  0.06208404    -0.14200
F933        F  0.65524920  0.92298820  0.88702916    -0.14200
F934        F  0.59137804  0.92055005  0.90481307    -0.11900
C935        C  0.46402003  0.32575360  0.97227251     0.26100
C936        C  0.93940596  0.34841284  0.99895671    -0.22000
C937        C  0.95509874  0.32829457  0.03196315     0.21000
C938        C  0.95904333  0.29596306  0.01986720     0.26100
C939        C  0.94702448  0.28316424  0.97461665    -0.21900
C940        C  0.46554329  0.29287390  0.97977244     0.21000
F941        F  0.48664000  0.27616901  0.95078066    -0.11900
F942        F  0.48324950  0.33878509  0.93535607    -0.14200
F943        F  0.97743513  0.27832977  0.04990574    -0.14200
F944        F  0.96971818  0.34069606  0.07293571    -0.11900
C945        C  0.93853161  0.48167855  0.77740538     0.26100
C946        C  0.96306509  0.46674438  0.80351367    -0.22000
C947        C  0.98693636  0.45047916  0.77528335     0.21000
C948        C  0.98664783  0.44980853  0.72237023     0.26100
C949        C  0.96216523  0.46463222  0.69666444    -0.21900
C950        C  0.93798480  0.48035716  0.72441893     0.21000
F951        F  0.91638289  0.97241070  0.70132025    -0.11900
F952        F  0.91932153  0.97607879  0.80388188    -0.14200
F953        F  0.51154002  0.43699896  0.69696288    -0.14200
F954        F  0.51253307  0.43762366  0.79960277    -0.11900
C955        C  0.94208333  0.47642240  0.22641040     0.26100
C956        C  0.96901557  0.46802369  0.19667362    -0.22000
C957        C  0.99716279  0.45962985  0.22063176     0.21000
C958        C  0.99818946  0.45923936  0.27361801     0.26100
C959        C  0.97132930  0.46813751  0.30343777    -0.21900
C960        C  0.94331914  0.47684080  0.27923635     0.21000
F961        F  0.91681513  0.48514523  0.30677931    -0.11900
F962        F  0.91476528  0.48508390  0.20422449    -0.14200
F963        F  0.52981409  0.46477594  0.29860010    -0.14200
F964        F  0.52817195  0.46340999  0.19547532    -0.11900
C965        C  0.71431120  0.39672612  0.52131524     0.26100
C966        C  0.70084963  0.40909143  0.47742908    -0.22000
C967        C  0.68212528  0.38846482  0.44799691     0.21000
C968        C  0.68050957  0.35565722  0.45819772     0.26100
C969        C  0.69729780  0.34278803  0.49868788    -0.21900
C970        C  0.71245231  0.36407749  0.53191676     0.21000
F971        F  0.72728005  0.35319000  0.57329727    -0.11900
F972        F  0.73169388  0.41548033  0.55209212    -0.14200
F973        F  0.66449013  0.33637140  0.42597062    -0.14200
F974        F  0.66747603  0.39972443  0.40671356    -0.11900
C975        C  0.80195549  0.50700857  0.44501939     0.26100
C976        C  0.78096763  0.48856910  0.47588123    -0.22000
C977        C  0.79275416  0.47535233  0.52040203     0.21000
C978        C  0.82535083  0.47652494  0.52976625     0.26100
C979        C  0.84701415  0.49096233  0.49485759    -0.21900
C980        C  0.83465769  0.50815844  0.45422588     0.21000
F981        F  0.85770303  0.02848948  0.43147977    -0.11900
F982        F  0.79114853  0.52171279  0.40330618    -0.14200
F983        F  0.83580600  0.46171978  0.57163660    -0.14200
F984        F  0.77347755  0.45879962  0.55302258    -0.11900
C985        C  0.67953052  0.38918286  0.06440197     0.26100
C986        C  0.69948429  0.40844152  0.03300789    -0.22000
C987        C  0.71473819  0.39423608  0.99057300     0.21000
C988        C  0.71232049  0.36145548  0.98205822     0.26100
C989        C  0.69538656  0.34157941  0.01664997    -0.21900
C990        C  0.67769190  0.35604339  0.05665957     0.21000
F991        F  0.66038183  0.33808549  0.09046529    -0.11900
F992        F  0.66368117  0.40216838  0.10495895    -0.14200
F993        F  0.72858712  0.34906915  0.94142477    -0.14200
F994        F  0.73457695  0.41129984  0.95944488    -0.11900
C995        C  0.83036180  0.51160723  0.04786041     0.26100
C996        C  0.84460900  0.49478255  0.00731423    -0.22000
C997        C  0.82527289  0.47880904  0.97288278     0.21000
C998        C  0.79241708  0.47591971  0.98260645     0.26100
C999        C  0.77811190  0.49020480  0.02606519    -0.21900
C1000       C  0.79725319  0.51009594  0.05633234     0.21000
F1001       F  0.78426940  0.52556330  0.09715606    -0.11900
F1002       F  0.85863621  0.02190558  0.07785561    -0.14200
F1003       F  0.77563283  0.45633698  0.95219588    -0.14200
F1004       F  0.83865748  0.46311319  0.93260323    -0.11900
C1005       C  0.00542248  0.13574039  0.55856172     0.26100
C1006       C  0.98512178  0.15503993  0.53074778    -0.22000
C1007       C  0.97087859  0.14170920  0.48786861     0.21000
C1008       C  0.97394990  0.10931037  0.47628553     0.26100
C1009       C  0.99140695  0.08911068  0.50735891    -0.21900
C1010       C  0.00862454  0.10315157  0.54701626     0.21000
F1011       F  0.02691882  0.08510203  0.57689587    -0.11900
F1012       F  0.02062006  0.14804930  0.59903604    -0.14200
F1013       F  0.46325249  0.09982210  0.43629218    -0.14200
F1014       F  0.95162522  0.15916319  0.45912043    -0.11900
C1015       C  0.88627920  0.25350970  0.56435468     0.26100
C1016       C  0.90644372  0.23438431  0.53367705    -0.22000
C1017       C  0.89371276  0.22022885  0.49008202     0.21000
C1018       C  0.86118599  0.22202366  0.48068257     0.26100
C1019       C  0.84034296  0.23833735  0.51435708    -0.21900
C1020       C  0.85362961  0.25539044  0.55503853     0.21000
F1021       F  0.83481623  0.27206785  0.58819288    -0.11900
F1022       F  0.89780806  0.26858460  0.60571756    -0.14200
F1023       F  0.84996469  0.20606554  0.43990165    -0.14200
F1024       F  0.91197454  0.20247343  0.45806809    -0.11900
C1025       C  0.00522205  0.14087916  0.05002133     0.26100
C1026       C  0.98325886  0.15888899  0.02344171    -0.22000
C1027       C  0.96935975  0.14510669  0.98062940     0.21000
C1028       C  0.97418976  0.11295848  0.96847384     0.26100
C1029       C  0.99274584  0.09362300  0.99934810    -0.21900
C1030       C  0.01011779  0.10861621  0.03799732     0.21000
F1031       F  0.03004347  0.09166018  0.06678936    -0.11900
F1032       F  0.02013718  0.15395809  0.09018068    -0.14200
F1033       F  0.95855053  0.10033418  0.92865854    -0.14200
F1034       F  0.94853488  0.16165925  0.95319330    -0.11900
C1035       C  0.88957860  0.22439829  0.98345219     0.26100
C1036       C  0.90228537  0.23724605  0.02812514    -0.22000
C1037       C  0.88277193  0.25692330  0.05904064     0.21000
C1038       C  0.85038489  0.26019184  0.04910600     0.26100
C1039       C  0.83720622  0.24433465  0.00764817    -0.21900
C1040       C  0.85728889  0.22799961  0.97333464     0.21000
F1041       F  0.84491736  0.21261034  0.93288686    -0.11900
F1042       F  0.90730225  0.20558815  0.95211235    -0.14200
F1043       F  0.83133609  0.27666842  0.08219450    -0.14200
F1044       F  0.89445229  0.27060594  0.10144122    -0.11900
N1045       N  0.96252077  0.71359182  0.01139058    -0.00900
C1046       C  0.93698313  0.72607409  0.03741643     0.01600
C1047       C  0.93539688  0.71319153  0.08560850    -0.21200
C1048       C  0.95843643  0.69034541  0.08740285    -0.21400
C1049       C  0.97367133  0.68951854  0.04025856     0.01500
H1050       H  0.91614364  0.71588009  0.11351227     0.15300
H1051       H  0.95977091  0.67248708  0.11676757     0.15400
N1052       N  0.96428613  0.71103309  0.51667216    -0.00900
C1053       C  0.97446967  0.68678921  0.54606215     0.01600
C1054       C  0.95820413  0.68775638  0.59244098    -0.21200
C1055       C  0.93567978  0.71104018  0.58961730    -0.21400
C1056       C  0.93844149  0.72386591  0.54153831     0.01500
H1057       H  0.95858657  0.66986428  0.62187321     0.15300
H1058       H  0.91587790  0.71405278  0.61645089     0.15400
N1059       N  0.73135709  0.96268078  0.01617593    -0.00900
C1060       C  0.75576330  0.97451297  0.04387820     0.01600
C1061       C  0.75453164  0.96060604  0.09125401    -0.21200
C1062       C  0.73094834  0.93773608  0.09090266    -0.21400
C1063       C  0.71808543  0.93797553  0.04324613     0.01500
H1064       H  0.77240607  0.96262497  0.11988833     0.15300
H1065       H  0.72779523  0.91932720  0.11918650     0.15400
N1066       N  0.72822317  0.96517760  0.47916382    -0.00900
C1067       C  0.75400154  0.97823005  0.45397030     0.01600
C1068       C  0.75495302  0.96685994  0.40467952    -0.21200
C1069       C  0.73124735  0.94415768  0.40125767    -0.21400
C1070       C  0.71623648  0.94196481  0.44853335     0.01500
H1071       H  0.77414616  0.97028423  0.37692626     0.15300
H1072       H  0.72937191  0.92715852  0.37036702     0.15400
Zn1073     Zn  0.94356854  0.94644907  0.03895432     1.49700
Zn1074     Zn  0.95335976  0.00053407  0.95402073     1.49400
Zn1075     Zn  0.00427422  0.99307865  0.04032925     1.49100
Zn1076     Zn  0.99990890  0.94035290  0.95301510     1.49500
O1077       O  0.97518618  0.96998886  0.99653011    -1.81600
O1078       O  0.89953896  0.96346667  0.02871683    -0.72200
O1079       O  0.96358372  0.54493699  0.97088956    -0.72000
O1080       O  0.99238652  0.98655878  0.11378336    -0.71600
O1081       O  0.90571263  0.00078757  0.96942798    -0.72200
O1082       O  0.95208563  0.95162007  0.11360634    -0.71800
O1083       O  0.99907651  0.53823898  0.03021994    -0.72400
O1084       O  0.54212276  0.93715036  0.96260307    -0.71800
O1085       O  0.95931810  0.98902403  0.88004011    -0.72600
O1086       O  0.55046744  0.97578685  0.01854967    -0.72000
O1087       O  0.99611688  0.95124518  0.87875727    -0.72400
O1088       O  0.98093604  0.89612407  0.96024461    -0.72300
O1089       O  0.94314341  0.89916304  0.02116528    -0.72100
C1090       C  0.88814884  0.98466868  0.00029404     0.79700
C1091       C  0.98423600  0.55637176  0.00063873     0.80200
C1092       C  0.97205584  0.96882999  0.13719285     0.79100
C1093       C  0.56105372  0.95401777  0.98880598     0.79500
C1094       C  0.97739855  0.96963876  0.85583516     0.80600
C1095       C  0.95919185  0.88322593  0.98825708     0.79700
Zn1096     Zn  0.95155746  0.99806035  0.45549322     1.49700
Zn1097     Zn  0.99422386  0.93578637  0.45090880     1.49400
Zn1098     Zn  0.00341331  0.98714127  0.53901358     1.49100
Zn1099     Zn  0.93973670  0.94353807  0.53987545     1.49500
O1100       O  0.97205517  0.96594707  0.49659043    -1.81600
O1101       O  0.95733147  0.98888145  0.38050356    -0.72200
O1102       O  0.54195571  0.93542129  0.47346976    -0.72000
O1103       O  0.00024548  0.53569336  0.53510187    -0.71600
O1104       O  0.98952665  0.94716400  0.37759427    -0.72200
O1105       O  0.96730571  0.54297527  0.47238093    -0.71800
O1106       O  0.54638649  0.97278539  0.53314492    -0.72400
O1107       O  0.94893939  0.94975540  0.61488566    -0.71800
O1108       O  0.97531496  0.89205433  0.45990860    -0.72600
O1109       O  0.99387979  0.97847172  0.61254793    -0.72000
O1110       O  0.93933470  0.89552535  0.52353414    -0.72400
O1111       O  0.89558531  0.96126161  0.52776164    -0.72300
O1112       O  0.90437900  0.99902024  0.47037460    -0.72100
C1113       C  0.97335963  0.96816033  0.35553014     0.79700
C1114       C  0.55854675  0.95127303  0.50468250     0.80200
C1115       C  0.98668872  0.55408311  0.50440532     0.79100
C1116       C  0.97170131  0.96389058  0.63728275     0.79500
C1117       C  0.95460734  0.87930310  0.48989253     0.80600
C1118       C  0.88530986  0.98317254  0.49928213     0.79700
N1119       N  0.97771106  0.72633983  0.96674706    -0.00900
C1120       C  0.49949186  0.71456633  0.94957889     0.01600
C1121       C  0.50052853  0.72925659  0.90275863    -0.21200
C1122       C  0.47870819  0.75332314  0.90480383    -0.21400
C1123       C  0.96761161  0.75139832  0.93892296     0.01500
H1124       H  0.51909467  0.72686241  0.87360291     0.15300
H1125       H  0.47748678  0.77230334  0.87726192     0.15400
N1126       N  0.98020400  0.72354842  0.47244395    -0.00900
C1127       C  0.50271795  0.71388016  0.44656125     0.01600
C1128       C  0.50291033  0.72726792  0.39875077    -0.21200
C1129       C  0.48023936  0.75051731  0.39955977    -0.21400
C1130       C  0.96957937  0.74772943  0.44332506     0.01500
H1131       H  0.52121710  0.72461803  0.36924565     0.15300
H1132       H  0.47814555  0.76861983  0.37076432     0.15400
N1133       N  0.71868696  0.97726602  0.97258553    -0.00900
C1134       C  0.69491872  0.96534268  0.94352254     0.01600
C1135       C  0.68883718  0.47013940  0.89815771    -0.21200
C1136       C  0.71151557  0.49389677  0.89524073    -0.21400
C1137       C  0.72348897  0.49774279  0.94319191     0.01500
H1138       H  0.67157512  0.46536343  0.86932496     0.15300
H1139       H  0.71449107  0.51015602  0.86378490     0.15400
N1140       N  0.71372925  0.97698398  0.52493158    -0.00900
C1141       C  0.68865038  0.96351163  0.55145460     0.01600
C1142       C  0.68345682  0.48240092  0.60047425    -0.21200
C1143       C  0.70618110  0.50623631  0.59943434    -0.21400
C1144       C  0.72154965  0.50518384  0.55227847     0.01500
H1145       H  0.66418937  0.48041752  0.62846686     0.15300
H1146       H  0.70728552  0.52551797  0.62685964     0.15400
Zn1147     Zn  0.74326291  0.75149180  0.94534058     1.49700
Zn1148     Zn  0.69811529  0.68866780  0.94169951     1.49400
Zn1149     Zn  0.75059022  0.69547047  0.02646604     1.49100
Zn1150     Zn  0.68826473  0.73907563  0.03088905     1.49500
O1151       O  0.72015991  0.71871783  0.98601962    -1.81600
O1152       O  0.73614142  0.74487339  0.87047344    -0.72200
O1153       O  0.71567892  0.64421134  0.94800125    -0.72000
O1154       O  0.79500382  0.71344200  0.01534680    -0.71600
O1155       O  0.70427555  0.70227563  0.86946243    -0.72200
O1156       O  0.79101454  0.75191262  0.95814370    -0.71800
O1157       O  0.75068856  0.64809471  0.00947458    -0.72400
O1158       O  0.69788516  0.73139874  0.10412070    -0.71800
O1159       O  0.65010650  0.68698863  0.95636414    -0.72600
O1160       O  0.74052584  0.70069043  0.10104262    -0.72000
O1161       O  0.64368003  0.72274856  0.01769199    -0.72400
O1162       O  0.68855648  0.78693186  0.02154263    -0.72300
O1163       O  0.72703726  0.79533185  0.96360734    -0.72100
C1164       C  0.71956402  0.72451659  0.84629385     0.79700
C1165       C  0.73574440  0.63167121  0.97689385     0.80200
C1166       C  0.80748913  0.73549095  0.98798755     0.79100
C1167       C  0.71938021  0.71604647  0.12633088     0.79500
C1168       C  0.63196766  0.70242751  0.98712024     0.80600
C1169       C  0.70550448  0.80591132  0.99412293     0.79700
Zn1170     Zn  0.69757562  0.69151541  0.53163110     1.49700
Zn1171     Zn  0.74193835  0.75401954  0.52676787     1.49400
Zn1172     Zn  0.75266990  0.69826961  0.44449683     1.49100
Zn1173     Zn  0.68970100  0.74178445  0.44352173     1.49500
O1174       O  0.72062880  0.72125342  0.48636914    -1.81600
O1175       O  0.70185368  0.70471551  0.60404405    -0.72200
O1176       O  0.78984675  0.75369273  0.51536587    -0.72000
O1177       O  0.75215354  0.65054258  0.46130688    -0.71600
O1178       O  0.73351807  0.74735561  0.60146440    -0.72200
O1179       O  0.71631655  0.64785484  0.52518966    -0.71800
O1180       O  0.79736642  0.71510814  0.45869448    -0.72400
O1181       O  0.70131466  0.73467203  0.37037103    -0.71800
O1182       O  0.72565494  0.79743064  0.51041720    -0.72600
O1183       O  0.74405262  0.70397768  0.36958437    -0.72000
O1184       O  0.68755819  0.78958543  0.45531670    -0.72400
O1185       O  0.64570887  0.72323093  0.45527060    -0.72300
O1186       O  0.65024019  0.68830914  0.51767364    -0.74500
C1187       C  0.71705017  0.72680517  0.62652572     0.79700
C1188       C  0.80850470  0.73661405  0.48795060     0.80200
C1189       C  0.73699472  0.63482689  0.49581771     0.79100
C1190       C  0.72286657  0.71921211  0.34622086     0.79500
C1191       C  0.70400892  0.80824343  0.48269193     0.80600
C1192       C  0.63353802  0.70266530  0.48566859     0.79700
C1193       C  0.73542821  0.74972254  0.76235656     0.26100
C1194       C  0.71784362  0.72645293  0.79016771    -0.22000
C1195       C  0.69849146  0.70473665  0.76356756     0.21000
C1196       C  0.69763045  0.70548315  0.71085253     0.26100
C1197       C  0.71613943  0.72791451  0.68285212    -0.21900
C1198       C  0.73459919  0.75043658  0.70942039     0.21000
F1199       F  0.75237050  0.77299466  0.68436986    -0.11900
F1200       F  0.75385207  0.77170047  0.78608881    -0.14200
F1201       F  0.67871828  0.68377382  0.68744384    -0.14200
F1202       F  0.68031441  0.68234941  0.78828875    -0.11900
C1203       C  0.70279691  0.73954675  0.21078728     0.26100
C1204       C  0.72024494  0.71666745  0.18259985    -0.22000
C1205       C  0.73922935  0.69508737  0.20878912     0.21000
C1206       C  0.74044787  0.69614393  0.26167514     0.26100
C1207       C  0.72271957  0.71878897  0.28987010    -0.21900
C1208       C  0.70403823  0.74062300  0.26357996     0.21000
F1209       F  0.68713412  0.76351218  0.28873481    -0.11900
F1210       F  0.68486429  0.76148299  0.18738483    -0.14200
F1211       F  0.75859715  0.67446123  0.28517483    -0.14200
F1212       F  0.75640284  0.67250249  0.18342986    -0.11900
C1213       C  0.75205938  0.55683207  0.56008041     0.26100
C1214       C  0.73488918  0.53540491  0.52943359    -0.22000
C1215       C  0.72453048  0.54653208  0.48231578     0.21000
C1216       C  0.72866368  0.57860244  0.46864275     0.26100
C1217       C  0.74232373  0.60040738  0.50218521    -0.21900
C1218       C  0.75509488  0.58915318  0.54709837     0.21000
F1219       F  0.76854200  0.60991997  0.58008391    -0.11900
F1220       F  0.76348122  0.54706003  0.60490052    -0.14200
F1221       F  0.71611016  0.58903819  0.42503733    -0.14200
F1222       F  0.70763098  0.52751898  0.45124416    -0.11900
C1223       C  0.72480269  0.57768660  0.01127655     0.26100
C1224       C  0.73994630  0.59686602  0.97434167    -0.22000
C1225       C  0.75486671  0.58241690  0.93202093     0.21000
C1226       C  0.75311047  0.54920084  0.92548804     0.26100
C1227       C  0.73476558  0.53009712  0.95966038    -0.21900
C1228       C  0.72157439  0.54477956  0.00361979     0.21000
F1229       F  0.70293175  0.52819907  0.03714303    -0.11900
F1230       F  0.71033524  0.59128449  0.05257754    -0.14200
F1231       F  0.76733707  0.53598196  0.88365603    -0.14200
F1232       F  0.76974701  0.60060283  0.89580474    -0.11900
C1233       C  0.54645210  0.71611912  0.50979120     0.26100
C1234       C  0.53323426  0.70194925  0.46648539    -0.22000
C1235       C  0.55287562  0.68247806  0.43533425     0.21000
C1236       C  0.58559399  0.68050960  0.44376500     0.26100
C1237       C  0.59892741  0.69692069  0.48457103    -0.21900
C1238       C  0.57891923  0.71324838  0.51898113     0.21000
F1239       F  0.59145883  0.72937467  0.55857737    -0.11900
F1240       F  0.52905723  0.73567910  0.54041151    -0.14200
F1241       F  0.60463331  0.66450066  0.41007004    -0.14200
F1242       F  0.54091758  0.66778877  0.39395114    -0.11900
C1243       C  0.54367105  0.71728787  0.01173133     0.26100
C1244       C  0.53001311  0.70248857  0.96950206    -0.22000
C1245       C  0.54930481  0.68242899  0.93895182     0.21000
C1246       C  0.58217332  0.68039315  0.94666177     0.26100
C1247       C  0.59650438  0.69832299  0.98547850    -0.21900
C1248       C  0.57638573  0.71519409  0.01971675     0.21000
F1249       F  0.58853088  0.73168641  0.05925715    -0.11900
F1250       F  0.52617226  0.73643496  0.04287481    -0.14200
F1251       F  0.60012699  0.66266115  0.91372723    -0.14200
F1252       F  0.53672149  0.66684634  0.89887370    -0.11900
C1253       C  0.61027142  0.46638895  0.47859885     0.26100
C1254       C  0.59304544  0.94607764  0.50724031    -0.22000
C1255       C  0.60549875  0.92851000  0.54701625     0.21000
C1256       C  0.63801513  0.93095268  0.55752088     0.26100
C1257       C  0.65833304  0.95171741  0.52923204    -0.21900
C1258       C  0.64251477  0.46975046  0.48939966     0.21000
F1259       F  0.66040865  0.49044413  0.46118843    -0.11900
F1260       F  0.59827384  0.48371521  0.44043240    -0.14200
F1261       F  0.64911795  0.91516162  0.59800182    -0.14200
F1262       F  0.58577172  0.91091884  0.57792181    -0.11900
C1263       C  0.43270690  0.83392043  0.44921665     0.26100
C1264       C  0.94979913  0.84452193  0.48580342    -0.22000
C1265       C  0.96473969  0.82452190  0.51984697     0.21000
C1266       C  0.96891501  0.79216885  0.50836759     0.26100
C1267       C  0.95742982  0.77895201  0.46303175    -0.21900
C1268       C  0.43518920  0.80116744  0.43898078     0.21000
F1269       F  0.42137718  0.78898116  0.39714234    -0.11900
F1270       F  0.41733989  0.85284249  0.41655198    -0.14200
F1271       F  0.98694323  0.77484077  0.53940477    -0.14200
F1272       F  0.97840886  0.83704333  0.56157576    -0.11900
C1273       C  0.61664379  0.96326418  0.01871428     0.26100
C1274       C  0.59619645  0.94958664  0.98313238    -0.22000
C1275       C  0.60275484  0.42771782  0.95101897     0.21000
C1276       C  0.63585628  0.42868595  0.94176387     0.26100
C1277       C  0.66303374  0.95346817  0.96298669    -0.21900
C1278       C  0.64945486  0.96553855  0.00853137     0.21000
F1279       F  0.66716509  0.98207664  0.04177419    -0.11900
F1280       F  0.60476179  0.97626756  0.06245154    -0.14200
F1281       F  0.64845071  0.41139655  0.90254741    -0.14200
F1282       F  0.58449859  0.40977849  0.91993269    -0.11900
C1283       C  0.43264223  0.83626134  0.95683811     0.26100
C1284       C  0.95336861  0.84871264  0.98255263    -0.22000
C1285       C  0.96597299  0.82755907  0.01725305     0.21000
C1286       C  0.96767801  0.79495184  0.00594278     0.26100
C1287       C  0.95628180  0.78274011  0.95980003    -0.21900
C1288       C  0.43410261  0.80358738  0.94575527     0.21000
F1289       F  0.42049682  0.79244058  0.90305323    -0.11900
F1290       F  0.41837051  0.85605373  0.92415006    -0.14200
F1291       F  0.98308701  0.77625257  0.03844914    -0.14200
F1292       F  0.97946070  0.83889253  0.05995246    -0.11900
C1293       C  0.94658279  0.97115585  0.77603006     0.26100
C1294       C  0.97592007  0.96785164  0.79992325    -0.22000
C1295       C  0.00353079  0.96203741  0.76996778     0.21000
C1296       C  0.00200929  0.96044309  0.71714695     0.26100
C1297       C  0.97272068  0.96383092  0.69325422    -0.21900
C1298       C  0.94495045  0.96879042  0.72322827     0.21000
F1299       F  0.91442174  0.49532367  0.70008116    -0.11900
F1300       F  0.91488813  0.49733539  0.80305924    -0.14200
F1301       F  0.51895836  0.94112779  0.69496924    -0.14200
F1302       F  0.51977383  0.94169432  0.79753184    -0.11900
C1303       C  0.94356736  0.97075753  0.22176470     0.26100
C1304       C  0.97212995  0.96804506  0.19298439    -0.22000
C1305       C  0.00104270  0.96493384  0.21792255     0.21000
C1306       C  0.00138543  0.96448286  0.27085020     0.26100
C1307       C  0.97295036  0.96818476  0.29969302    -0.21900
C1308       C  0.94402502  0.97129482  0.27475191     0.21000
F1309       F  0.91611568  0.97403350  0.30174471    -0.11900
F1310       F  0.91534263  0.97369126  0.19854903    -0.14200
F1311       F  0.53496108  0.96460911  0.29962077    -0.14200
F1312       F  0.53558126  0.96567890  0.19621426    -0.11900
C1313       C  0.71637626  0.89597081  0.50945472     0.26100
C1314       C  0.70396165  0.91017263  0.46620319    -0.22000
C1315       C  0.68562960  0.89097148  0.43388287     0.21000
C1316       C  0.68339220  0.85782859  0.44103016     0.26100
C1317       C  0.69929937  0.84335496  0.48101017    -0.21900
C1318       C  0.71380975  0.86315415  0.51701203     0.21000
F1319       F  0.72748532  0.85064797  0.55829849    -0.11900
F1320       F  0.73353006  0.91304406  0.54272046    -0.14200
F1321       F  0.66768424  0.83986492  0.40664548    -0.14200
F1322       F  0.67191162  0.90400597  0.39308165    -0.11900
C1323       C  0.80543257  0.00922678  0.45079807     0.26100
C1324       C  0.78437869  0.98857410  0.47757370    -0.22000
C1325       C  0.79602479  0.97201217  0.51930015     0.21000
C1326       C  0.82860223  0.97212822  0.52890865     0.26100
C1327       C  0.85037591  0.98915397  0.49735362    -0.21900
C1328       C  0.83806755  0.00963854  0.46057865     0.21000
F1329       F  0.85431881  0.52400482  0.42089670    -0.11900
F1330       F  0.79474681  0.02716306  0.41230742    -0.14200
F1331       F  0.83886975  0.95383417  0.56728855    -0.14200
F1332       F  0.77659995  0.95342310  0.54863205    -0.11900
C1333       C  0.68692295  0.88685866  0.05259739     0.26100
C1334       C  0.70589282  0.90729345  0.02160878    -0.22000
C1335       C  0.71936843  0.89474033  0.97631573     0.21000
C1336       C  0.71679967  0.86215761  0.96518928     0.26100
C1337       C  0.70146068  0.84105684  0.99969259    -0.21900
C1338       C  0.68510053  0.85406350  0.04227719     0.21000
F1339       F  0.66945181  0.83489226  0.07636256    -0.11900
F1340       F  0.67246883  0.89820060  0.09563494    -0.14200
F1341       F  0.73124142  0.85107882  0.92196627    -0.14200
F1342       F  0.73762127  0.91310063  0.94465825    -0.11900
C1343       C  0.83983021  0.00641593  0.04451357     0.26100
C1344       C  0.85357043  0.98992706  0.00317644    -0.22000
C1345       C  0.83380435  0.97437640  0.96884698     0.21000
C1346       C  0.80085600  0.97244836  0.97858080     0.26100
C1347       C  0.78713008  0.98635274  0.02277845    -0.21900
C1348       C  0.80679700  0.00514498  0.05373828     0.21000
F1349       F  0.79432356  0.01989501  0.09560310    -0.11900
F1350       F  0.84870755  0.52768208  0.08118377    -0.14200
F1351       F  0.78318948  0.95423401  0.94732644    -0.14200
F1352       F  0.84673934  0.95847628  0.92840574    -0.11900
C1353       C  0.00399506  0.63608860  0.55948796     0.26100
C1354       C  0.98701973  0.65566010  0.52688885    -0.22000
C1355       C  0.97597474  0.64218843  0.48158784     0.21000
C1356       C  0.97866638  0.60953242  0.47197032     0.26100
C1357       C  0.99174200  0.58924882  0.50799259    -0.21900
C1358       C  0.00616046  0.60319469  0.55042709     0.21000
F1359       F  0.02018635  0.58485917  0.58541122    -0.11900
F1360       F  0.01620378  0.64841153  0.60251797    -0.14200
F1361       F  0.45966273  0.59939682  0.43741349    -0.14200
F1362       F  0.95995050  0.65973347  0.44821449    -0.11900
C1363       C  0.88898610  0.75687801  0.54355446     0.26100
C1364       C  0.90901584  0.73534018  0.51726618    -0.22000
C1365       C  0.89700519  0.71931633  0.47480089     0.21000
C1366       C  0.86490155  0.72174096  0.46268018     0.26100
C1367       C  0.84381128  0.74025724  0.49283253    -0.21900
C1368       C  0.85678031  0.75939393  0.53153910     0.21000
F1369       F  0.83796610  0.77888415  0.56039047    -0.11900
F1370       F  0.90006321  0.77372036  0.58355685    -0.14200
F1371       F  0.85417241  0.70410710  0.42327955    -0.14200
F1372       F  0.91537291  0.69889294  0.44739747    -0.11900
C1373       C  0.00454438  0.63919157  0.05069291     0.26100
C1374       C  0.98553044  0.65828274  0.02035880    -0.22000
C1375       C  0.97207940  0.64431209  0.97727450     0.21000
C1376       C  0.97415875  0.61152432  0.96836423     0.26100
C1377       C  0.98941080  0.59164825  0.00271603    -0.21900
C1378       C  0.00647900  0.60618011  0.04208461     0.21000
F1379       F  0.02317921  0.58835062  0.07457491    -0.11900
F1380       F  0.01928560  0.65217474  0.09109966    -0.14200
F1381       F  0.95921895  0.59910240  0.92770307    -0.14200
F1382       F  0.95434917  0.66159546  0.94583974    -0.11900
C1383       C  0.89559222  0.72370597  0.97000648     0.26100
C1384       C  0.90718388  0.73785621  0.01456294    -0.22000
C1385       C  0.88631563  0.75709327  0.04398297     0.21000
C1386       C  0.85389039  0.75847765  0.03300391     0.26100
C1387       C  0.84200946  0.74150694  0.99153866    -0.21900
C1388       C  0.86330101  0.72553906  0.95872285     0.21000
F1389       F  0.85227191  0.70912644  0.91826075    -0.11900
F1390       F  0.91448128  0.70541711  0.93970264    -0.14200
F1391       F  0.83367355  0.77441465  0.06499767    -0.14200
F1392       F  0.89678842  0.77226265  0.08600482    -0.11900
loop_ 
_geom_bond_atom_site_label_1 
_geom_bond_atom_site_label_2 
_geom_bond_distance 
_geom_bond_site_symmetry_2 
_ccdc_geom_bond_type 
N1            C5   1.365       .  A
N1            C2   1.367       .  A
N1           N75   1.428   1_556  S
C2            C3   1.384       .  A
C2          C340   1.497       .  S
C3            C4   1.372       .  A
C3            H6   1.081       .  S
C4            C5   1.384       .  A
C4            H7   1.081       .  S
C5          C330   1.497       .  S
N8           C12   1.365       .  A
N8            C9   1.365       .  A
N8           N82   1.427       .  S
C9           C10   1.383       .  A
C9          C310   1.494       .  S
C10          C11   1.370       .  A
C10          H13   1.083       .  S
C11          C12   1.383       .  A
C11          H14   1.083       .  S
C12         C320   1.494       .  S
N15          C19   1.363       .  A
N15          C16   1.366       .  A
N15          N89   1.428   1_554  S
C16          C17   1.385       .  A
C16         C303   1.499       .  S
C17          C18   1.369       .  A
C17          H20   1.084       .  S
C18          C19   1.383       .  A
C18          H21   1.080       .  S
C19         C290   1.493       .  S
N22          C26   1.364       .  A
N22          C23   1.363       .  A
N22          N96   1.427       .  S
C23          C24   1.383       .  A
C23         C280   1.492       .  S
C24          C25   1.370       .  A
C24          H27   1.081       .  S
C25          C26   1.384       .  A
C25          H28   1.084       .  S
C26         C270   1.496       .  S
Zn29         O33   1.968       .  S
Zn29         O34   2.025       .  S
Zn29         O38   2.029       .  S
Zn29         O45   2.047       .  S
Zn30         O33   1.969   1_556  S
Zn30         O37   2.034       .  S
Zn30         O41   2.030       .  S
Zn30        O383   2.032       .  S
Zn31         O33   1.961       .  S
Zn31         O36   2.017       .  S
Zn31        O387   2.025       .  S
Zn31        O738   2.009       .  S
Zn32         O33   1.960   1_556  S
Zn32         O43   2.012       .  S
Zn32         O44   1.998       .  S
Zn32        O736   2.032       .  S
O34          C46   1.274       .  A
O35        Zn378   2.005   1_545  S
O35          C47   1.273       .  A
O36          C48   1.273       .  A
O37          C46   1.274   1_556  A
O38          C48   1.275       .  A
O39        Zn379   2.044   1_545  S
O39          C47   1.276   1_554  A
O40        Zn728   2.035   1_455  S
O40          C49   1.274       .  A
O41          C50   1.275       .  A
O42        Zn727   2.001   1_455  S
O42          C49   1.272   1_554  A
O43          C50   1.273       .  A
O44          C51   1.272   1_556  A
O45          C51   1.277       .  A
C46         C300   1.473       .  S
C47         C333   1.469       .  S
C48         C260   1.481       .  S
C49         C230   1.492       .  S
C50         C250   1.485       .  S
C51         C240   1.493       .  S
Zn52         O56   1.958       .  S
Zn52         O57   2.015       .  S
Zn52         O68   2.018       .  S
Zn52        O409   2.011       .  S
Zn53         O56   1.968       .  S
Zn53         O60   2.030       .  S
Zn53         O64   2.017       .  S
Zn53        O754   2.037       .  S
Zn54         O56   1.958       .  S
Zn54         O65   2.011       .  S
Zn54        O407   2.033       .  S
Zn54        O758   2.006       .  S
Zn55         O56   1.971       .  S
Zn55         O63   2.030       .  S
Zn55         O66   2.030       .  S
Zn55         O67   2.019       .  S
O57          C69   1.273       .  A
O58        Zn749   2.040   1_455  S
O58          C70   1.274       .  A
O59        Zn402   2.035   1_545  S
O59          C71   1.275       .  A
O60          C69   1.274       .  A
O61        Zn400   2.012       .  S
O61          C71   1.274       .  A
O62        Zn750   1.996   1_455  S
O62          C70   1.271       .  A
O63          C72   1.274       .  A
O64          C73   1.274       .  A
O65          C72   1.272       .  A
O66          C73   1.274       .  A
O67          C74   1.275       .  A
O68          C74   1.272       .  A
C69         C263   1.478       .  S
C70         C210   1.469       .  S
C71         C313   1.493       .  S
C72         C253   1.472       .  S
C73         C220   1.469       .  S
C74         C283   1.490       .  S
N75          C79   1.363       .  A
N75         C772   1.364       .  A
C76         N771   1.364       .  A
C76          C77   1.383       .  A
C76         C200   1.496   1_655  S
C77          C78   1.371       .  A
C77          H80   1.083   1_655  S
C78         C775   1.384       .  A
C78          H81   1.083       .  S
C79         C774   1.382       .  A
C79         C243   1.490       .  S
N82          C86   1.364       .  A
N82         C779   1.365       .  A
C83         N778   1.364   1_455  A
C83          C84   1.383       .  A
C83         C190   1.495       .  S
C84          C85   1.371   1_455  A
C84          H87   1.083       .  S
C85         C782   1.384       .  A
C85          H88   1.083       .  S
C86         C781   1.384       .  A
C86         C223   1.493       .  S
N89          C90   1.366       .  A
N89         C441   1.363       .  A
C90         C439   1.383       .  A
C90         C233   1.494       .  S
C91          C92   1.355   1_565  A
C91         C438   1.381       .  A
C91          H94   1.084   1_565  S
C92          C93   1.380       .  A
C92          H95   1.082       .  S
C93         N437   1.369   1_545  A
C93         C183   1.481       .  S
N96          C97   1.363       .  A
N96         C448   1.365       .  A
C97         C446   1.383       .  A
C97         C213   1.492       .  S
C98          C99   1.370   1_565  A
C98         C445   1.383       .  A
C98         H101   1.081       .  S
C99         C100   1.385       .  A
C99         H102   1.084       .  S
C100        N444   1.365   1_545  A
C100        C170   1.496       .  S
Zn103       O107   1.959   1_556  S
Zn103       O108   2.000       .  S
Zn103       O112   2.042       .  S
Zn103       O119   2.008       .  S
Zn104       O107   1.971   1_556  S
Zn104       O109   2.048       .  S
Zn104       O111   2.023       .  S
Zn104       O115   2.039       .  S
Zn105       O107   1.944       .  S
Zn105       O110   2.006       .  S
Zn105       O113   1.995       .  S
Zn105       O116   2.016       .  S
Zn106       O107   1.963       .  S
Zn106       O114   2.025       .  S
Zn106       O117   2.023       .  S
Zn106       O118   2.027       .  S
O108        C120   1.272       .  A
O109        C121   1.278   1_556  A
O110        C122   1.272   1_554  A
O111        C120   1.275       .  A
O112        C122   1.274       .  A
O113        C121   1.271       .  A
O114        C123   1.275       .  A
O115        C124   1.276       .  A
O116        C123   1.273       .  A
O117        C124   1.275   1_554  A
O118        C125   1.274       .  A
O119        C125   1.274   1_556  A
C120        C150   1.478       .  S
C121        C180   1.491       .  S
C122        C343   1.495       .  S
C123        C160   1.493       .  S
C124        C203   1.496       .  S
C125        C293   1.490       .  S
Zn126       O130   1.965       .  S
Zn126       O131   2.006       .  S
Zn126       O135   2.013       .  S
Zn126       O142   2.036       .  S
Zn127       O130   1.963       .  S
Zn127       O132   2.032       .  S
Zn127       O134   2.016       .  S
Zn127       O138   2.024       .  S
Zn128       O130   1.971       .  S
Zn128       O133   2.041       .  S
Zn128       O136   2.029       .  S
Zn128       O139   2.036       .  S
Zn129       O130   1.952       .  S
Zn129       O137   2.000       .  S
Zn129       O140   2.024       .  S
Zn129       O141   1.999       .  S
O131        C143   1.272       .  A
O132        C144   1.275       .  A
O133        C145   1.275       .  A
O134        C143   1.274       .  A
O135        C145   1.273       .  A
O136        C144   1.276       .  A
O137        C146   1.272       .  A
O138        C147   1.275       .  A
O139        C146   1.276       .  A
O140        C147   1.273       .  A
O141        C148   1.271       .  A
O142        C148   1.273       .  A
C143        C153   1.482       .  S
C144        C323   1.495       .  S
C145        C173   1.473       .  S
C146        C163   1.491       .  S
C147        C273   1.491       .  S
C148        C193   1.468       .  S
C149        C150   1.407       .  A
C149        C154   1.396       .  A
C149        F156   1.358       .  S
C150        C151   1.406       .  A
C151        C152   1.399       .  A
C151        F158   1.358       .  S
C152        C153   1.410       .  A
C152        F157   1.358       .  S
C153        C154   1.408       .  A
C154        F155   1.358       .  S
C159        C160   1.409       .  A
C159        C164   1.397       .  A
C159        F166   1.358       .  S
C160        C161   1.413       .  A
C161        C162   1.401       .  A
C161        F168   1.358       .  S
C162        C163   1.409       .  A
C162        F167   1.358       .  S
C163        C164   1.412       .  A
C164        F165   1.358       .  S
C169        C170   1.411       .  A
C169        C174   1.402       .  A
C169        F176   1.358       .  S
C170        C171   1.412       .  A
C171        C172   1.399       .  A
C171        F178   1.352       .  S
C172        C173   1.400       .  A
C172        F177   1.358       .  S
C173        C174   1.403       .  A
C174        F175   1.358       .  S
C179        C180   1.409   1_556  A
C179        C184   1.404       .  A
C179        F186   1.358       .  S
C180        C181   1.412       .  A
C181        C182   1.395       .  A
C181        F188   1.358       .  S
C182        C183   1.403       .  A
C182        F187   1.357       .  S
C183        C184   1.408   1_554  A
C184        F185   1.355       .  S
C189        C190   1.413       .  A
C189        C194   1.398       .  A
C189        F196   1.351       .  S
C190        C191   1.410       .  A
C191        C192   1.401       .  A
C191        F198   1.358       .  S
C192        C193   1.402       .  A
C192        F197   1.358       .  S
C193        C194   1.399       .  A
C194        F195   1.358       .  S
C199        C200   1.409   1_554  A
C199        C204   1.401       .  A
C199        F206   1.353       .  S
C200        C201   1.407       .  A
C201        C202   1.402       .  A
C201        F208   1.358       .  S
C202        C203   1.412       .  A
C202        F207   1.357       .  S
C203        C204   1.411   1_556  A
C204        F205   1.358       .  S
C209        C214   1.398       .  A
C209        C558   1.399       .  A
C209        F216   1.358       .  S
C210        C211   1.402       .  A
C210        C557   1.400       .  A
C211        C212   1.399       .  A
C211        F218   1.358       .  S
C212        C213   1.409       .  A
C212        F217   1.358       .  S
C213        C562   1.412       .  A
C214        C561   1.411       .  A
C214        F215   1.352       .  S
C219        C224   1.403       .  A
C219        C916   1.403       .  A
C219        F226   1.358       .  S
C220        C221   1.400       .  A
C220        C915   1.402       .  A
C221        C222   1.398       .  A
C221        F228   1.358       .  S
C222        C223   1.412       .  A
C222        F227   1.353       .  S
C223        C920   1.410       .  A
C224        C919   1.411       .  A
C224        F225   1.358       .  S
C229        C230   1.409   1_554  A
C229        C234   1.394       .  A
C229        F236   1.358       .  S
C230        C579   1.411       .  A
C231        C232   1.405   1_556  A
C231        C578   1.404   1_556  A
C231        F238   1.357       .  S
C232        C581   1.408       .  A
C232        F237   1.355   1_554  S
C233        C234   1.406   1_556  A
C233        C580   1.409       .  A
C234        F235   1.351       .  S
C239        C244   1.400       .  A
C239        C936   1.403       .  A
C239        F246   1.358       .  S
C240        C241   1.411       .  A
C240        C935   1.412   1_554  A
C241        C242   1.403       .  A
C241        F248   1.357       .  S
C242        C243   1.408       .  A
C242        F247   1.358       .  S
C243        C940   1.405   1_554  A
C244        C939   1.410       .  A
C244        F245   1.358       .  S
C249        C250   1.411       .  A
C249        C254   1.402       .  A
C249        F604   1.358       .  S
C250        C251   1.410       .  A
C251        C252   1.398       .  A
C251        F954   1.358       .  S
C252        C253   1.403       .  A
C252        F953   1.358       .  S
C253        C254   1.403       .  A
C254        F603   1.358       .  S
F255        C602   1.358       .  S
F256        C597   1.358       .  S
F257        C948   1.358   1_455  S
F258        C947   1.358   1_455  S
C259        C260   1.406       .  A
C259        C264   1.398       .  A
C259        F266   1.358       .  S
C260        C261   1.409       .  A
C261        C262   1.403       .  A
C261        F964   1.358       .  S
C262        C263   1.406       .  A
C262        F963   1.358       .  S
C263        C264   1.406       .  A
C264        F265   1.358       .  S
F267        C958   1.358   1_455  S
F268        C957   1.358   1_455  S
C269        C270   1.410       .  A
C269        C274   1.398       .  A
C269        F276   1.351       .  S
C270        C271   1.409       .  A
C271        C272   1.401       .  A
C271        F278   1.358       .  S
C272        C273   1.411       .  A
C272        F277   1.358       .  S
C273        C274   1.408       .  A
C274        F275   1.358       .  S
C279        C280   1.407       .  A
C279        C284   1.402       .  A
C279        F286   1.358       .  S
C280        C281   1.408       .  A
C281        C282   1.396       .  A
C281        F288   1.351       .  S
C282        C283   1.408       .  A
C282        F287   1.358       .  S
C283        C284   1.412       .  A
C284        F633   1.358       .  S
F285        C632   1.357       .  S
C289        C290   1.409       .  A
C289        C294   1.403       .  A
C289        F296   1.358       .  S
C290        C291   1.408   1_554  A
C291        C292   1.393       .  A
C291        F298   1.351       .  S
C292        C293   1.408   1_556  A
C292        F297   1.358       .  S
C293        C294   1.411       .  A
C294        F295   1.358       .  S
C299        C300   1.402       .  A
C299        C304   1.402       .  A
C299        F654   1.358       .  S
C300        C301   1.400   1_554  A
C301        C302   1.399       .  A
C301        F308   1.358       .  S
C302        C303   1.413   1_556  A
C302        F307   1.351       .  S
C303        C304   1.413       .  A
C304        F305   1.358       .  S
F306        C647   1.358       .  S
C309        C310   1.408       .  A
C309        C314   1.403       .  A
C309        F316   1.358       .  S
C310        C311   1.408       .  A
C311        C312   1.397       .  A
C311        F318   1.353       .  S
C312        C313   1.410       .  A
C312       F1013   1.358       .  S
C313        C314   1.411       .  A
C314        F315   1.358       .  S
F317       C1008   1.358       .  S
C319        C320   1.408       .  A
C319        C324   1.403       .  A
C319        F326   1.358       .  S
C320        C321   1.408       .  A
C321        C322   1.399       .  A
C321        F328   1.353       .  S
C322        C323   1.410       .  A
C322        F327   1.358       .  S
C323        C324   1.412       .  A
C324        F325   1.358       .  S
C329        C330   1.412   1_554  A
C329        C334   1.396       .  A
C329        F336   1.351       .  S
C330        C331   1.412       .  A
C331        C332   1.403       .  A
C331        F338   1.358       .  S
C332        C333   1.403       .  A
C332        F337   1.358       .  S
C333        C334   1.397   1_556  A
C334        F335   1.358       .  S
C339        C340   1.407   1_554  A
C339        C344   1.394       .  A
C339        F346   1.351       .  S
C340        C341   1.410       .  A
C341        C342   1.406       .  A
C341        F348   1.358       .  S
C342        C343   1.412       .  A
C342        F347   1.358       .  S
C343        C344   1.409   1_556  A
C344        F345   1.358       .  S
N349        C353   1.363       .  A
N349        C350   1.365       .  A
N349        N423   1.425   1_554  S
C350        C351   1.385       .  A
C350        C688   1.499       .  S
C351        C352   1.371       .  A
C351        H354   1.083       .  S
C352        C353   1.383       .  A
C352        H355   1.084       .  S
C353        C678   1.493       .  S
N356        C360   1.362       .  A
N356        C357   1.365       .  A
N356        N430   1.427       .  S
C357        C358   1.385       .  A
C357        C658   1.496       .  S
C358        C359   1.371       .  A
C358        H361   1.083       .  S
C359        C360   1.382       .  A
C359        H362   1.083       .  S
C360        C668   1.492       .  S
N363        C367   1.370       .  A
N363        C364   1.370       .  A
N363        N437   1.431       .  S
C364        C365   1.381       .  A
C364        C651   1.481       .  S
C365        C366   1.356       .  A
C365        H368   1.084       .  S
C366        C367   1.380       .  A
C366        H369   1.083       .  S
C367        C638   1.480       .  S
N370        C374   1.364       .  A
N370        C371   1.362       .  A
N370        N444   1.426       .  S
C371        C372   1.383       .  A
C371        C628   1.493       .  S
C372        C373   1.371       .  A
C372        H375   1.081       .  S
C373        C374   1.384       .  A
C373        H376   1.084       .  S
C374        C618   1.498       .  S
Zn377       O381   1.958   1_554  S
Zn377       O382   2.005       .  S
Zn377       O386   2.014       .  S
Zn377       O393   2.042       .  S
Zn378       O381   1.972       .  S
Zn378       O385   2.041   1_565  S
Zn378       O389   2.017       .  S
Zn379       O381   1.972   1_554  S
Zn379       O384   2.045       .  S
Zn379      O1086   2.023       .  S
Zn380       O381   1.958       .  S
Zn380      O1084   2.030       .  S
Zn380       O391   2.010       .  S
Zn380       O392   2.007       .  S
O382        C394   1.273       .  A
O383        C395   1.277   1_556  A
O384        C396   1.276       .  A
O385        C394   1.274   1_546  A
O386        C396   1.273       .  A
O387        C395   1.274       .  A
O388      Zn1076   2.053   1_455  S
O388        C397   1.275   1_556  A
O389        C398   1.273       .  A
O390      Zn1075   1.995       .  S
O390        C397   1.272       .  A
O391        C398   1.272       .  A
O392        C399   1.273   1_556  A
O393        C399   1.275       .  A
C394        C648   1.474       .  S
C395        C681   1.495       .  S
C396        C608   1.482       .  S
C397        C578   1.474       .  S
C398        C598   1.483       .  S
C399        C588   1.472   1_554  S
Zn400       O404   1.958   1_545  S
Zn400       O405   2.019   1_545  S
Zn400       O416   2.023       .  S
Zn401       O404   1.968       .  S
Zn401      O1102   2.040       .  S
Zn401       O408   2.034       .  S
Zn401       O412   2.019       .  S
Zn402       O404   1.960       .  S
Zn402      O1106   2.007       .  S
Zn402       O413   2.007       .  S
Zn403       O404   1.973       .  S
Zn403       O411   2.025       .  S
Zn403       O414   2.034       .  S
Zn403       O415   2.023       .  S
O405        C417   1.274       .  A
O406      Zn1097   2.028   1_455  S
O406        C418   1.272       .  A
O407        C419   1.275       .  A
O408        C417   1.275       .  A
O409        C419   1.274       .  A
O410      Zn1098   2.005       .  S
O410        C418   1.272       .  A
O411        C420   1.274       .  A
O412        C421   1.275       .  A
O413        C420   1.272       .  A
O414        C421   1.274       .  A
O415        C422   1.275       .  A
O416        C422   1.273   1_545  A
C417        C611   1.481       .  S
C418        C558   1.467       .  S
C419        C661   1.493       .  S
C420        C601   1.470       .  S
C421        C568   1.470       .  S
C422        C631   1.494       .  S
N423        C427   1.363       .  A
N423       C1120   1.365       .  A
C424       N1119   1.364   1_455  A
C424        C425   1.382       .  A
C424        C548   1.493       .  S
C425        C426   1.371   1_455  A
C425        H428   1.084       .  S
C426       C1123   1.386       .  A
C426        H429   1.083       .  S
C427       C1122   1.383       .  A
C427        C591   1.496       .  S
N430        C434   1.365       .  A
N430       C1127   1.363       .  A
C431       N1126   1.366   1_455  A
C431        C432   1.385       .  A
C431        C538   1.499       .  S
C432        C433   1.370   1_455  A
C432        H435   1.083       .  S
C433       C1130   1.383       .  A
C433        H436   1.083       .  S
C434       C1129   1.383       .  A
C434        C571   1.495       .  S
N437        C438   1.369       .  A
C438        C581   1.483       .  S
C439        C440   1.370       .  A
C439        H442   1.084       .  S
C440        C441   1.385       .  A
C440        H443   1.081       .  S
C441        C531   1.493       .  S
N444        C445   1.363       .  A
C445        C561   1.491       .  S
C446        C447   1.369       .  A
C446        H449   1.081       .  S
C447        C448   1.383       .  A
C447        H450   1.084       .  S
C448        C518   1.492       .  S
Zn451       O455   1.978       .  S
Zn451       O456   2.034       .  S
Zn451       O460   2.054       .  S
Zn451       O467   2.040       .  S
Zn452       O455   1.953       .  S
Zn452       O457   2.007       .  S
Zn452       O459   1.992       .  S
Zn452       O463   2.024       .  S
Zn453       O455   1.957   1_554  S
Zn453       O458   1.994       .  S
Zn453       O461   2.023       .  S
Zn453       O464   1.998       .  S
Zn454       O455   1.955   1_554  S
Zn454       O462   2.026       .  S
Zn454       O465   2.017       .  S
Zn454       O466   2.019       .  S
O456        C468   1.276       .  A
O457        C469   1.272       .  A
O458        C470   1.271   1_554  A
O459        C468   1.271       .  A
O460        C470   1.276       .  A
O461        C469   1.272   1_554  A
O462        C471   1.275       .  A
O463        C472   1.273       .  A
O464        C471   1.271       .  A
O465        C472   1.274   1_554  A
O466        C473   1.274       .  A
O467        C473   1.277   1_556  A
C468        C498   1.489       .  S
C469        C528   1.466       .  S
C470        C691   1.471   1_556  S
C471        C508   1.487       .  S
C472        C551   1.492       .  S
C473        C641   1.492       .  S
Zn474       O478   1.960       .  S
Zn474       O479   2.010       .  S
Zn474       O483   2.009       .  S
Zn474       O490   2.045       .  S
Zn475       O478   1.961       .  S
Zn475       O480   2.015       .  S
Zn475       O482   2.014       .  S
Zn475       O486   2.015       .  S
Zn476       O478   1.971       .  S
Zn476       O481   2.034       .  S
Zn476       O484   2.022       .  S
Zn476       O487   2.032       .  S
Zn477       O478   1.949       .  S
Zn477       O485   1.992       .  S
Zn477       O488   2.023       .  S
Zn477       O489   2.007       .  S
O479        C491   1.273       .  A
O480        C492   1.272       .  A
O481        C493   1.273       .  A
O482        C491   1.273       .  A
O483        C493   1.273       .  A
O484        C492   1.276       .  A
O485        C494   1.271       .  A
O486        C495   1.274       .  A
O487        C494   1.275       .  A
O488        C495   1.273       .  A
O489        C496   1.272       .  A
O490        C496   1.274       .  A
C491        C501   1.489       .  S
C492        C671   1.490       .  S
C493        C521   1.469       .  S
C494        C511   1.486       .  S
C495        C621   1.490       .  S
C496        C541   1.474       .  S
C497        C498   1.409       .  A
C497        C502   1.400       .  A
C497        F504   1.358       .  S
C498        C499   1.412       .  A
C499        C500   1.395       .  A
C499        F506   1.358       .  S
C500        C501   1.409       .  A
C500        F505   1.358       .  S
C501        C502   1.411       .  A
C502        F503   1.358       .  S
C507        C508   1.407       .  A
C507        C512   1.396       .  A
C507        F514   1.358       .  S
C508        C509   1.413       .  A
C509        C510   1.400       .  A
C509        F516   1.358       .  S
C510        C511   1.407       .  A
C510        F515   1.358       .  S
C511        C512   1.411       .  A
C512        F513   1.358       .  S
C517        C518   1.410       .  A
C517        C522   1.401       .  A
C517        F524   1.358       .  S
C518        C519   1.411       .  A
C519        C520   1.398       .  A
C519        F526   1.353       .  S
C520        C521   1.399       .  A
C520        F525   1.358       .  S
C521        C522   1.403       .  A
C522        F523   1.358       .  S
C527        C528   1.398   1_554  A
C527        C532   1.395       .  A
C527        F534   1.358       .  S
C528        C529   1.402       .  A
C529        C530   1.401       .  A
C529        F536   1.358       .  S
C530        C531   1.411       .  A
C530        F535   1.358       .  S
C531        C532   1.412   1_556  A
C532        F533   1.351       .  S
C537        C538   1.413       .  A
C537        C542   1.402       .  A
C537        F544   1.352       .  S
C538        C539   1.412       .  A
C539        C540   1.401       .  A
C539        F546   1.358       .  S
C540        C541   1.403       .  A
C540        F545   1.358       .  S
C541        C542   1.400       .  A
C542        F543   1.358       .  S
C547        C548   1.407   1_554  A
C547        C552   1.395       .  A
C547        F554   1.350       .  S
C548        C549   1.407       .  A
C549        C550   1.403       .  A
C549        F556   1.358       .  S
C550        C551   1.413       .  A
C550        F555   1.358       .  S
C551        C552   1.408   1_556  A
C552        F553   1.358       .  S
C557        C562   1.399       .  A
C557        F564   1.358       .  S
C558        C559   1.402       .  A
C559        C560   1.400       .  A
C559        F566   1.358       .  S
C560        C561   1.409       .  A
C560        F565   1.358       .  S
C562        F563   1.353       .  S
C567       C1264   1.404       .  A
C567        C572   1.401       .  A
C567        F574   1.358       .  S
C568       C1263   1.402       .  A
C568        C569   1.400       .  A
C569        C570   1.398       .  A
C569        F576   1.358       .  S
C570        C571   1.412       .  A
C570        F575   1.353       .  S
C571       C1268   1.411       .  A
C572       C1267   1.410       .  A
C572        F573   1.358       .  S
C577        C578   1.404       .  A
C577        C582   1.395       .  A
C577        F584   1.358       .  S
C579        C580   1.404       .  A
C579        F586   1.358       .  S
C580        F585   1.358       .  S
C581        C582   1.406       .  A
C582        F583   1.358       .  S
C587       C1284   1.402       .  A
C587        C592   1.401       .  A
C587        F594   1.358       .  S
C588       C1283   1.402       .  A
C588        C589   1.401   1_556  A
C589        C590   1.402       .  A
C589        F596   1.358       .  S
C590        C591   1.413   1_554  A
C590        F595   1.353       .  S
C591       C1288   1.409       .  A
C592       C1287   1.411       .  A
C592        F593   1.358       .  S
C597        C598   1.410       .  A
C597        C602   1.400       .  A
C598        C599   1.410       .  A
C599        C600   1.397       .  A
C599       F1302   1.358       .  S
C600        C601   1.403       .  A
C600       F1301   1.358       .  S
C601        C602   1.403       .  A
F605       C1296   1.358       .  S
F606       C1295   1.358       .  S
C607        C608   1.407       .  A
C607        C612   1.399       .  A
C607        F614   1.358       .  S
C608        C609   1.407       .  A
C609        C610   1.404       .  A
C609       F1312   1.358       .  S
C610        C611   1.408       .  A
C610       F1311   1.358       .  S
C611        C612   1.406       .  A
C612        F613   1.358       .  S
F615       C1306   1.358       .  S
F616       C1305   1.358       .  S
C617        C618   1.410       .  A
C617        C622   1.396       .  A
C617        F624   1.350       .  S
C618        C619   1.409       .  A
C619        C620   1.402       .  A
C619        F626   1.358       .  S
C620        C621   1.411       .  A
C620        F625   1.358       .  S
C621        C622   1.407       .  A
C622        F623   1.358       .  S
C627        C628   1.407   1_545  A
C627        C632   1.403       .  A
C627        F634   1.358       .  S
C628        C629   1.407       .  A
C629        C630   1.397       .  A
C629        F636   1.350       .  S
C630        C631   1.409       .  A
C630        F635   1.358       .  S
C631        C632   1.413   1_565  A
C637        C638   1.405       .  A
C637        C642   1.397       .  A
C637        F644   1.358       .  S
C638        C639   1.404       .  A
C639        C640   1.404   1_554  A
C639        F646   1.357   1_554  S
C640        C641   1.411   1_556  A
C640        F645   1.358       .  S
C641        C642   1.411       .  A
C642        F643   1.358       .  S
C647        C648   1.402   1_545  A
C647        C652   1.395   1_545  A
C648        C649   1.405   1_554  A
C649        C650   1.405   1_556  A
C649        F656   1.358       .  S
C650        C651   1.408       .  A
C650        F655   1.357   1_554  S
C651        C652   1.407       .  A
C652        F653   1.358       .  S
C657        C658   1.409       .  A
C657        C662   1.403       .  A
C657        F664   1.358       .  S
C658        C659   1.408       .  A
C659        C660   1.395       .  A
C659        F666   1.349       .  S
C660        C661   1.409       .  A
C660       F1361   1.358       .  S
C661        C662   1.411       .  A
C662        F663   1.357       .  S
F665       C1356   1.358       .  S
C667        C668   1.407       .  A
C667        C672   1.402       .  A
C667        F674   1.358       .  S
C668        C669   1.408       .  A
C669        C670   1.394       .  A
C669        F676   1.350       .  S
C670        C671   1.406       .  A
C670        F675   1.358       .  S
C671        C672   1.413       .  A
C672        F673   1.358       .  S
C677        C678   1.406       .  A
C677        C682   1.403       .  A
C677        F684   1.358       .  S
C678        C679   1.408   1_554  A
C679        C680   1.399       .  A
C679        F686   1.352       .  S
C680        C681   1.409   1_556  A
C680        F685   1.358       .  S
C681        C682   1.413       .  A
C682        F683   1.358       .  S
C687        C688   1.414   1_556  A
C687        C692   1.400       .  A
C687        F694   1.351       .  S
C688        C689   1.411       .  A
C689        C690   1.401       .  A
C689        F696   1.358       .  S
C690        C691   1.403       .  A
C690        F695   1.358       .  S
C691        C692   1.399   1_554  A
C692        F693   1.358       .  S
N697        C701   1.363       .  A
N697        C698   1.364       .  A
N697        N771   1.425   1_554  S
C698        C699   1.383       .  A
C698       C1036   1.492       .  S
C699        C700   1.371       .  A
C699        H702   1.083       .  S
C700        C701   1.382       .  A
C700        H703   1.084       .  S
C701       C1026   1.490       .  S
N704        C708   1.364       .  A
N704        C705   1.364       .  A
N704        N778   1.426       .  S
C705        C706   1.382       .  A
C705       C1006   1.495       .  S
C706        C707   1.372       .  A
C706        H709   1.083       .  S
C707        C708   1.385       .  A
C707        H710   1.083       .  S
C708       C1016   1.497       .  S
N711        C715   1.365       .  A
N711        C712   1.366       .  A
N711        N785   1.429   1_554  S
C712        C713   1.385       .  A
C712        C999   1.496       .  S
C713        C714   1.369       .  A
C713        H716   1.084       .  S
C714        C715   1.382       .  A
C714        H717   1.081       .  S
C715        C986   1.492       .  S
N718        C722   1.364       .  A
N718        C719   1.362       .  A
N718        N792   1.425       .  S
C719        C720   1.384       .  A
C719        C976   1.494       .  S
C720        C721   1.370       .  A
C720        H723   1.081       .  S
C721        C722   1.384       .  A
C721        H724   1.084       .  S
C722        C966   1.495       .  S
Zn725       O729   1.968       .  S
Zn725       O730   2.023       .  S
Zn725       O734   2.027       .  S
Zn725       O741   2.048       .  S
Zn726       O729   1.966   1_556  S
Zn726      O1079   2.016       .  S
Zn726       O733   2.027       .  S
Zn726       O737   2.022       .  S
Zn727       O729   1.959       .  S
Zn727       O732   2.016       .  S
Zn727      O1083   2.027       .  S
Zn728       O729   1.960   1_556  S
Zn728       O739   2.013       .  S
Zn728       O740   2.000       .  S
O730        C742   1.275       .  A
O731      Zn1074   2.027       .  S
O731        C743   1.276       .  A
O732        C744   1.273       .  A
O733        C742   1.273   1_556  A
O734        C744   1.275       .  A
O735      Zn1075   2.032   1_545  S
O735        C743   1.276   1_454  A
O736        C745   1.274       .  A
O737        C746   1.274       .  A
O738        C745   1.273   1_554  A
O739        C746   1.273       .  A
O740        C747   1.272   1_556  A
O741        C747   1.276       .  A
C742        C996   1.471       .  S
C743       C1029   1.495       .  S
C744        C956   1.476       .  S
C745        C926   1.492       .  S
C746        C946   1.485       .  S
C747        C936   1.471   1_554  S
Zn748       O752   1.957       .  S
Zn748       O753   2.011       .  S
Zn748      O1105   2.011       .  S
Zn748       O764   2.020       .  S
Zn749       O752   1.970       .  S
Zn749       O756   2.028       .  S
Zn749       O760   2.018       .  S
Zn750       O752   1.955       .  S
Zn750      O1103   2.018   1_655  S
Zn750       O761   2.004       .  S
Zn751       O752   1.971       .  S
Zn751       O759   2.036       .  S
Zn751       O762   2.042       .  S
Zn751       O763   2.026       .  S
O753        C765   1.273       .  A
O754        C766   1.274       .  A
O755      Zn1098   2.033   1_545  S
O755        C767   1.275   1_455  A
O756        C765   1.274       .  A
O757      Zn1096   2.015   1_545  S
O757        C767   1.274       .  A
O758        C766   1.272       .  A
O759        C768   1.274       .  A
O760        C769   1.275       .  A
O761        C768   1.271       .  A
O762        C769   1.276       .  A
O763        C770   1.275       .  A
O764        C770   1.273       .  A
C765        C959   1.481       .  S
C766        C906   1.470       .  S
C767       C1009   1.494       .  S
C768        C949   1.470       .  S
C769        C916   1.473       .  S
C770        C979   1.491       .  S
N771        C775   1.364       .  A
C772        C773   1.384       .  A
C772        C896   1.494       .  S
C773        C774   1.370       .  A
C773        H776   1.083       .  S
C774        H777   1.082       .  S
C775        C939   1.495       .  S
N778        C782   1.365       .  A
C779        C780   1.383       .  A
C779        C886   1.494       .  S
C780        C781   1.369       .  A
C780        H783   1.083       .  S
C781        H784   1.083       .  S
C782        C919   1.495       .  S
N785       C1137   1.365       .  A
N785        C786   1.366       .  A
C786       C1135   1.383       .  A
C786        C929   1.495       .  S
C787       C1134   1.384       .  A
C787        C788   1.370   1_565  A
C787        H790   1.083       .  S
C788        C789   1.384       .  A
C788        H791   1.080       .  S
C789       N1133   1.363   1_545  A
C789        C879   1.498       .  S
N792       C1144   1.365       .  A
N792        C793   1.363       .  A
C793       C1142   1.382       .  A
C793        C909   1.491       .  S
C794       C1141   1.384       .  A
C794        C795   1.371       .  A
C794        H797   1.081       .  S
C795        C796   1.384   1_565  A
C795        H798   1.084   1_565  S
C796       N1140   1.362   1_545  A
C796        C866   1.496       .  S
Zn799       O803   1.964   1_556  S
Zn799       O804   2.014       .  S
Zn799       O808   2.033       .  S
Zn799       O815   2.001       .  S
Zn800       O803   1.956   1_556  S
Zn800       O805   2.016       .  S
Zn800       O807   2.002       .  S
Zn800       O811   2.029       .  S
Zn801       O803   1.957       .  S
Zn801       O806   2.007       .  S
Zn801       O809   2.030       .  S
Zn801       O812   2.004       .  S
Zn802       O803   1.966       .  S
Zn802       O810   2.020       .  S
Zn802       O813   2.022       .  S
Zn802       O814   2.034       .  S
O804        C816   1.273       .  A
O805        C817   1.273   1_556  A
O806        C818   1.272       .  A
O807        C816   1.272       .  A
O808        C818   1.273   1_556  A
O809        C817   1.273       .  A
O810        C819   1.274       .  A
O811        C820   1.273   1_556  A
O812        C819   1.272       .  A
O813        C820   1.274       .  A
O814        C821   1.275       .  A
O815        C821   1.273   1_556  A
C816        C846   1.487       .  S
C817        C876   1.470   1_554  S
C818       C1039   1.469       .  S
C819        C856   1.488       .  S
C820        C899   1.471       .  S
C821        C989   1.490       .  S
Zn822       O826   1.962       .  S
Zn822       O827   2.003       .  S
Zn822       O831   2.012       .  S
Zn822       O838   2.045       .  S
Zn823       O826   1.962       .  S
Zn823       O828   2.026       .  S
Zn823       O830   2.014       .  S
Zn823       O834   2.027       .  S
Zn824       O826   1.969       .  S
Zn824       O829   2.028       .  S
Zn824       O832   2.027       .  S
Zn824       O835   2.030       .  S
Zn825       O826   1.949       .  S
Zn825       O833   1.993       .  S
Zn825       O836   2.018       .  S
Zn825       O837   2.002       .  S
O827        C839   1.273       .  A
O828        C840   1.274       .  A
O829        C841   1.273       .  A
O830        C839   1.273       .  A
O831        C841   1.273       .  A
O832        C840   1.275       .  A
O833        C842   1.271       .  A
O834        C843   1.276       .  A
O835        C842   1.275       .  A
O836        C843   1.273       .  A
O837        C844   1.271       .  A
O838        C844   1.274       .  A
C839        C849   1.487       .  S
C840       C1019   1.494       .  S
C841        C869   1.468       .  S
C842        C859   1.488       .  S
C843        C969   1.492       .  S
C844        C889   1.472       .  S
C845        C846   1.410       .  A
C845        C850   1.399       .  A
C845        F852   1.358       .  S
C846        C847   1.410       .  A
C847        C848   1.395       .  A
C847        F854   1.358       .  S
C848        C849   1.410       .  A
C848        F853   1.358       .  S
C849        C850   1.410       .  A
C850        F851   1.358       .  S
C855        C856   1.409       .  A
C855        C860   1.397       .  A
C855        F862   1.358       .  S
C856        C857   1.411       .  A
C857        C858   1.398       .  A
C857        F864   1.358       .  S
C858        C859   1.408       .  A
C858        F863   1.358       .  S
C859        C860   1.412       .  A
C860        F861   1.358       .  S
C865        C866   1.410       .  A
C865        C870   1.401       .  A
C865        F872   1.358       .  S
C866        C867   1.413       .  A
C867        C868   1.396       .  A
C867        F874   1.350       .  S
C868        C869   1.397       .  A
C868        F873   1.358       .  S
C869        C870   1.402       .  A
C870        F871   1.358       .  S
C875        C876   1.399   1_554  A
C875        C880   1.399       .  A
C875        F882   1.358       .  S
C876        C877   1.402       .  A
C877        C878   1.401       .  A
C877        F884   1.358       .  S
C878        C879   1.411       .  A
C878        F883   1.358       .  S
C879        C880   1.413   1_556  A
C880        F881   1.351       .  S
C885        C886   1.412       .  A
C885        C890   1.401       .  A
C885        F892   1.353       .  S
C886        C887   1.410       .  A
C887        C888   1.400       .  A
C887        F894   1.358       .  S
C888        C889   1.403       .  A
C888        F893   1.358       .  S
C889        C890   1.401       .  A
C890        F891   1.358       .  S
C895        C896   1.411       .  A
C895        C900   1.401       .  A
C895        F902   1.358       .  S
C896        C897   1.411   1_554  A
C897        C898   1.399       .  A
C897        F904   1.352       .  S
C898        C899   1.401   1_556  A
C898        F903   1.358       .  S
C899        C900   1.402       .  A
C900        F901   1.357       .  S
C905       C1254   1.398       .  A
C905        C910   1.396       .  A
C905        F912   1.358       .  S
C906       C1253   1.399       .  A
C906        C907   1.404       .  A
C907        C908   1.403       .  A
C907        F914   1.358       .  S
C908        C909   1.409       .  A
C908        F913   1.358       .  S
C909       C1258   1.410       .  A
C910       C1257   1.411       .  A
C910        F911   1.350       .  S
C915        C920   1.401       .  A
C915        F922   1.358       .  S
C916        C917   1.400       .  A
C917        C918   1.399       .  A
C917        F924   1.358       .  S
C918        C919   1.411       .  A
C918        F923   1.351       .  S
C920        F921   1.358       .  S
C925        C926   1.409   1_554  A
C925        C930   1.396       .  A
C925        F932   1.358       .  S
C926       C1275   1.411       .  A
C927       C1274   1.411       .  A
C927        C928   1.404       .  A
C927        F934   1.358       .  S
C928       C1277   1.411       .  A
C928        F933   1.358       .  S
C929       C1276   1.410       .  A
C929        C930   1.408   1_556  A
C930        F931   1.352       .  S
C935        C940   1.395       .  A
C935        F942   1.358       .  S
C936        C937   1.400   1_556  A
C937        C938   1.400       .  A
C937        F944   1.358       .  S
C938        C939   1.412   1_554  A
C938        F943   1.353       .  S
C940        F941   1.352       .  S
C945        C946   1.411       .  A
C945        C950   1.401       .  A
C945       F1300   1.358       .  S
C946        C947   1.410       .  A
C947        C948   1.398       .  A
C948        C949   1.402       .  A
C949        C950   1.402       .  A
C950       F1299   1.358       .  S
F951       C1298   1.358       .  S
F952       C1293   1.358       .  S
C955        C956   1.404       .  A
C955        C960   1.398       .  A
C955        F962   1.358       .  S
C956        C957   1.407       .  A
C957        C958   1.402       .  A
C958        C959   1.408       .  A
C959        C960   1.408       .  A
C960        F961   1.358       .  S
C965        C966   1.409       .  A
C965        C970   1.398       .  A
C965        F972   1.351       .  S
C966        C967   1.408       .  A
C967        C968   1.402       .  A
C967        F974   1.358       .  S
C968        C969   1.412       .  A
C968        F973   1.358       .  S
C969        C970   1.408       .  A
C970        F971   1.358       .  S
C975        C976   1.407       .  A
C975        C980   1.401       .  A
C975        F982   1.358       .  S
C976        C977   1.409       .  A
C977        C978   1.398       .  A
C977        F984   1.351       .  S
C978        C979   1.408       .  A
C978        F983   1.358       .  S
C979        C980   1.411       .  A
C980       F1329   1.358       .  S
F981       C1328   1.358       .  S
C985        C986   1.409       .  A
C985        C990   1.403       .  A
C985        F992   1.358       .  S
C986        C987   1.406   1_554  A
C987        C988   1.393       .  A
C987        F994   1.352       .  S
C988        C989   1.409   1_556  A
C988        F993   1.358       .  S
C989        C990   1.411       .  A
C990        F991   1.358       .  S
C995        C996   1.401       .  A
C995       C1000   1.401       .  A
C995       F1350   1.358       .  S
C996        C997   1.399   1_554  A
C997        C998   1.398       .  A
C997       F1004   1.358       .  S
C998        C999   1.412   1_556  A
C998       F1003   1.352       .  S
C999       C1000   1.412       .  A
C1000      F1001   1.358       .  S
F1002      C1343   1.358       .  S
C1005      C1006   1.408   1_455  A
C1005      C1010   1.404       .  A
C1005      F1012   1.358       .  S
C1006      C1007   1.407       .  A
C1007      C1008   1.396       .  A
C1007      F1014   1.350       .  S
C1008      C1009   1.409       .  A
C1009      C1010   1.412   1_655  A
C1010      F1011   1.357       .  S
C1015      C1016   1.408       .  A
C1015      C1020   1.403       .  A
C1015      F1022   1.358       .  S
C1016      C1017   1.409       .  A
C1017      C1018   1.398       .  A
C1017      F1024   1.350       .  S
C1018      C1019   1.408       .  A
C1018      F1023   1.358       .  S
C1019      C1020   1.412       .  A
C1020      F1021   1.357       .  S
C1025      C1026   1.405   1_455  A
C1025      C1030   1.403       .  A
C1025      F1032   1.358       .  S
C1026      C1027   1.406   1_554  A
C1027      C1028   1.398       .  A
C1027      F1034   1.353       .  S
C1028      C1029   1.411       .  A
C1028      F1033   1.358       .  S
C1029      C1030   1.413   1_656  A
C1030      F1031   1.357       .  S
C1035      C1036   1.411   1_556  A
C1035      C1040   1.399       .  A
C1035      F1042   1.352       .  S
C1036      C1037   1.409       .  A
C1037      C1038   1.401       .  A
C1037      F1044   1.358       .  S
C1038      C1039   1.402       .  A
C1038      F1043   1.358       .  S
C1039      C1040   1.400   1_554  A
C1040      F1041   1.358       .  S
N1045      C1049   1.364       .  A
N1045      C1046   1.363       .  A
N1045      N1119   1.426   1_554  S
C1046      C1047   1.385       .  A
C1046      C1384   1.496       .  S
C1047      C1048   1.371       .  A
C1047      H1050   1.083       .  S
C1048      C1049   1.382       .  A
C1048      H1051   1.084       .  S
C1049      C1374   1.493       .  S
N1052      C1056   1.365       .  A
N1052      C1053   1.362       .  A
N1052      N1126   1.426       .  S
C1053      C1054   1.384       .  A
C1053      C1354   1.492       .  S
C1054      C1055   1.371       .  A
C1054      H1057   1.083       .  S
C1055      C1056   1.382       .  A
C1055      H1058   1.083       .  S
C1056      C1364   1.495       .  S
N1059      C1063   1.364       .  A
N1059      C1060   1.364       .  A
N1059      N1133   1.427   1_554  S
C1060      C1061   1.382       .  A
C1060      C1347   1.493       .  S
C1061      C1062   1.369       .  A
C1061      H1064   1.084       .  S
C1062      C1063   1.385       .  A
C1062      H1065   1.080       .  S
C1063      C1334   1.494       .  S
N1066      C1070   1.363       .  A
N1066      C1067   1.362       .  A
N1066      N1140   1.425       .  S
C1067      C1068   1.384       .  A
C1067      C1324   1.495       .  S
C1068      C1069   1.372       .  A
C1068      H1071   1.081       .  S
C1069      C1070   1.384       .  A
C1069      H1072   1.084       .  S
C1070      C1314   1.493       .  S
Zn1073     O1077   1.968   1_554  S
Zn1073     O1078   2.015       .  S
Zn1073     O1082   2.025       .  S
Zn1073     O1089   2.033       .  S
Zn1074     O1077   1.961   1_545  S
Zn1074     O1081   2.028       .  S
Zn1074     O1085   2.019   1_545  S
Zn1075     O1077   1.952   1_454  S
Zn1075     O1080   2.007   1_455  S
Zn1076     O1077   1.970       .  S
Zn1076     O1087   2.028       .  S
Zn1076     O1088   2.014       .  S
O1078      C1090   1.273       .  A
O1079      C1091   1.275   1_556  A
O1080      C1092   1.272       .  A
O1081      C1090   1.272   1_546  A
O1082      C1092   1.274       .  A
O1083      C1091   1.274       .  A
O1084      C1093   1.274       .  A
O1085      C1094   1.274       .  A
O1086      C1093   1.275   1_554  A
O1087      C1094   1.276       .  A
O1088      C1095   1.273       .  A
O1089      C1095   1.274   1_554  A
C1090      C1344   1.470       .  S
C1091      C1377   1.491       .  S
C1092      C1304   1.474       .  S
C1093      C1274   1.492       .  S
C1094      C1294   1.482       .  S
C1095      C1284   1.471       .  S
Zn1096     O1100   1.957       .  S
Zn1096     O1101   2.023       .  S
Zn1096     O1112   2.007       .  S
Zn1097     O1100   1.965       .  S
Zn1097     O1104   2.013       .  S
Zn1097     O1108   1.999       .  S
Zn1098     O1100   1.956   1_455  S
Zn1098     O1109   2.005   1_455  S
Zn1099     O1100   1.977       .  S
Zn1099     O1107   2.045       .  S
Zn1099     O1110   2.054       .  S
Zn1099     O1111   2.040       .  S
O1101      C1113   1.274       .  A
O1102      C1114   1.274       .  A
O1103      C1115   1.273   1_455  A
O1104      C1113   1.272       .  A
O1105      C1115   1.274       .  A
O1106      C1114   1.272       .  A
O1107      C1116   1.277       .  A
O1108      C1117   1.272       .  A
O1109      C1116   1.272       .  A
O1110      C1117   1.277       .  A
O1111      C1118   1.277       .  A
O1112      C1118   1.272       .  A
C1113      C1307   1.476       .  S
C1114      C1254   1.470       .  S
C1115      C1357   1.488       .  S
C1116      C1297   1.480       .  S
C1117      C1264   1.472       .  S
C1118      C1327   1.493       .  S
N1119      C1123   1.364       .  A
C1120      C1121   1.383       .  A
C1120      C1244   1.495       .  S
C1121      C1122   1.370       .  A
C1121      H1124   1.084       .  S
C1122      H1125   1.083       .  S
C1123      C1287   1.498       .  S
N1126      C1130   1.363       .  A
C1127      C1128   1.384       .  A
C1127      C1234   1.493       .  S
C1128      C1129   1.370       .  A
C1128      H1131   1.083       .  S
C1129      H1132   1.083       .  S
C1130      C1267   1.495       .  S
N1133      C1134   1.365       .  A
C1134      C1277   1.498       .  S
C1135      C1136   1.369       .  A
C1135      H1138   1.083       .  S
C1136      C1137   1.385       .  A
C1136      H1139   1.080       .  S
C1137      C1227   1.496       .  S
N1140      C1141   1.364       .  A
C1141      C1257   1.495       .  S
C1142      C1143   1.371       .  A
C1142      H1145   1.081       .  S
C1143      C1144   1.385       .  A
C1143      H1146   1.083       .  S
C1144      C1214   1.499       .  S
Zn1147     O1151   1.974       .  S
Zn1147     O1152   2.026       .  S
Zn1147     O1156   2.042       .  S
Zn1147     O1163   2.017       .  S
Zn1148     O1151   1.957       .  S
Zn1148     O1153   2.021       .  S
Zn1148     O1155   2.002       .  S
Zn1148     O1159   2.040       .  S
Zn1149     O1151   1.962   1_554  S
Zn1149     O1154   2.015       .  S
Zn1149     O1157   2.032       .  S
Zn1149     O1160   2.013       .  S
Zn1150     O1151   1.960   1_554  S
Zn1150     O1158   2.017       .  S
Zn1150     O1161   2.023       .  S
Zn1150     O1162   2.020       .  S
O1152      C1164   1.275       .  A
O1153      C1165   1.274       .  A
O1154      C1166   1.273   1_554  A
O1155      C1164   1.273       .  A
O1156      C1166   1.274       .  A
O1157      C1165   1.274   1_554  A
O1158      C1167   1.274       .  A
O1159      C1168   1.275       .  A
O1160      C1167   1.273       .  A
O1161      C1168   1.275   1_554  A
O1162      C1169   1.273   1_554  A
O1163      C1169   1.274       .  A
C1164      C1194   1.489       .  S
C1165      C1224   1.471       .  S
C1166      C1387   1.473       .  S
C1167      C1204   1.488       .  S
C1168      C1247   1.498       .  S
C1169      C1337   1.490       .  S
Zn1170     O1174   1.957       .  S
Zn1170     O1175   2.001       .  S
Zn1170     O1179   2.004       .  S
Zn1170     O1186   2.034       .  S
Zn1171     O1174   1.958       .  S
Zn1171     O1176   2.024       .  S
Zn1171     O1178   2.014       .  S
Zn1171     O1182   2.004       .  S
Zn1172     O1174   1.972       .  S
Zn1172     O1177   2.049       .  S
Zn1172     O1180   2.040       .  S
Zn1172     O1183   2.038       .  S
Zn1173     O1174   1.958       .  S
Zn1173     O1181   2.000       .  S
Zn1173     O1184   2.027       .  S
Zn1173     O1185   2.009       .  S
O1175      C1187   1.272       .  A
O1176      C1188   1.274       .  A
O1177      C1189   1.276       .  A
O1178      C1187   1.272       .  A
O1179      C1189   1.272       .  A
O1180      C1188   1.277       .  A
O1181      C1190   1.272       .  A
O1182      C1191   1.274       .  A
O1183      C1190   1.277       .  A
O1184      C1191   1.273       .  A
O1185      C1192   1.272       .  A
O1186      C1192   1.273       .  A
C1187      C1197   1.488       .  S
C1188      C1367   1.497       .  S
C1189      C1217   1.473       .  S
C1190      C1207   1.489       .  S
C1191      C1317   1.487       .  S
C1192      C1237   1.470       .  S
C1193      C1194   1.410       .  A
C1193      C1198   1.400       .  A
C1193      F1200   1.358       .  S
C1194      C1195   1.411       .  A
C1195      C1196   1.395       .  A
C1195      F1202   1.358       .  S
C1196      C1197   1.409       .  A
C1196      F1201   1.358       .  S
C1197      C1198   1.411       .  A
C1198      F1199   1.358       .  S
C1203      C1204   1.409       .  A
C1203      C1208   1.398       .  A
C1203      F1210   1.358       .  S
C1204      C1205   1.410       .  A
C1205      C1206   1.400       .  A
C1205      F1212   1.358       .  S
C1206      C1207   1.408       .  A
C1206      F1211   1.358       .  S
C1207      C1208   1.411       .  A
C1208      F1209   1.358       .  S
C1213      C1214   1.411       .  A
C1213      C1218   1.401       .  A
C1213      F1220   1.358       .  S
C1214      C1215   1.414       .  A
C1215      C1216   1.400       .  A
C1215      F1222   1.351       .  S
C1216      C1217   1.399       .  A
C1216      F1221   1.358       .  S
C1217      C1218   1.403       .  A
C1218      F1219   1.358       .  S
C1223      C1224   1.399   1_554  A
C1223      C1228   1.397       .  A
C1223      F1230   1.358       .  S
C1224      C1225   1.402       .  A
C1225      C1226   1.402       .  A
C1225      F1232   1.358       .  S
C1226      C1227   1.413       .  A
C1226      F1231   1.358       .  S
C1227      C1228   1.412   1_556  A
C1228      F1229   1.352       .  S
C1233      C1234   1.411       .  A
C1233      C1238   1.398       .  A
C1233      F1240   1.353       .  S
C1234      C1235   1.410       .  A
C1235      C1236   1.401       .  A
C1235      F1242   1.358       .  S
C1236      C1237   1.402       .  A
C1236      F1241   1.358       .  S
C1237      C1238   1.400       .  A
C1238      F1239   1.358       .  S
C1243      C1244   1.407   1_554  A
C1243      C1248   1.399       .  A
C1243      F1250   1.353       .  S
C1244      C1245   1.408       .  A
C1245      C1246   1.404       .  A
C1245      F1252   1.358       .  S
C1246      C1247   1.413       .  A
C1246      F1251   1.357       .  S
C1247      C1248   1.411   1_556  A
C1248      F1249   1.358       .  S
C1253      C1258   1.397       .  A
C1253      F1260   1.358       .  S
C1254      C1255   1.404       .  A
C1255      C1256   1.403       .  A
C1255      F1262   1.358       .  S
C1256      C1257   1.411       .  A
C1256      F1261   1.358       .  S
C1258      F1259   1.351       .  S
C1263      C1268   1.401       .  A
C1263      F1270   1.358       .  S
C1264      C1265   1.400       .  A
C1265      C1266   1.399       .  A
C1265      F1272   1.358       .  S
C1266      C1267   1.412       .  A
C1266      F1271   1.353       .  S
C1268      F1269   1.358       .  S
C1273      C1274   1.407   1_554  A
C1273      C1278   1.397       .  A
C1273      F1280   1.358       .  S
C1275      C1276   1.403       .  A
C1275      F1282   1.358       .  S
C1276      F1281   1.358       .  S
C1277      C1278   1.409   1_556  A
C1278      F1279   1.351       .  S
C1283      C1288   1.400       .  A
C1283      F1290   1.358       .  S
C1284      C1285   1.398   1_556  A
C1285      C1286   1.399       .  A
C1285      F1292   1.358       .  S
C1286      C1287   1.414   1_554  A
C1286      F1291   1.350       .  S
C1288      F1289   1.358       .  S
C1293      C1294   1.409       .  A
C1293      C1298   1.401       .  A
C1294      C1295   1.406   1_655  A
C1295      C1296   1.400       .  A
C1296      C1297   1.408   1_455  A
C1297      C1298   1.405       .  A
C1303      C1304   1.405       .  A
C1303      C1308   1.400       .  A
C1303      F1310   1.358       .  S
C1304      C1305   1.406   1_655  A
C1305      C1306   1.399       .  A
C1306      C1307   1.405   1_455  A
C1307      C1308   1.407       .  A
C1308      F1309   1.358       .  S
C1313      C1314   1.408       .  A
C1313      C1318   1.392       .  A
C1313      F1320   1.349       .  S
C1314      C1315   1.409       .  A
C1315      C1316   1.403       .  A
C1315      F1322   1.358       .  S
C1316      C1317   1.410       .  A
C1316      F1321   1.357       .  S
C1317      C1318   1.406       .  A
C1318      F1319   1.359       .  S
C1323      C1324   1.406   1_545  A
C1323      C1328   1.401       .  A
C1323      F1330   1.358       .  S
C1324      C1325   1.409       .  A
C1325      C1326   1.398       .  A
C1325      F1332   1.350       .  S
C1326      C1327   1.407       .  A
C1326      F1331   1.358       .  S
C1327      C1328   1.413   1_565  A
C1333      C1334   1.409       .  A
C1333      C1338   1.400       .  A
C1333      F1340   1.358       .  S
C1334      C1335   1.409   1_554  A
C1335      C1336   1.398       .  A
C1335      F1342   1.352       .  S
C1336      C1337   1.408       .  A
C1336      F1341   1.358       .  S
C1337      C1338   1.410   1_556  A
C1338      F1339   1.358       .  S
C1343      C1344   1.402   1_545  A
C1343      C1348   1.400       .  A
C1344      C1345   1.400   1_554  A
C1345      C1346   1.400       .  A
C1345      F1352   1.358       .  S
C1346      C1347   1.412   1_556  A
C1346      F1351   1.353       .  S
C1347      C1348   1.410   1_565  A
C1348      F1349   1.358       .  S
C1353      C1354   1.408   1_455  A
C1353      C1358   1.401       .  A
C1353      F1360   1.358       .  S
C1354      C1355   1.409       .  A
C1355      C1356   1.395       .  A
C1355      F1362   1.351       .  S
C1356      C1357   1.407       .  A
C1357      C1358   1.411   1_655  A
C1358      F1359   1.358       .  S
C1363      C1364   1.407       .  A
C1363      C1368   1.403       .  A
C1363      F1370   1.358       .  S
C1364      C1365   1.407       .  A
C1365      C1366   1.399       .  A
C1365      F1372   1.351       .  S
C1366      C1367   1.409       .  A
C1366      F1371   1.358       .  S
C1367      C1368   1.414       .  A
C1368      F1369   1.358       .  S
C1373      C1374   1.407   1_455  A
C1373      C1378   1.403       .  A
C1373      F1380   1.358       .  S
C1374      C1375   1.407   1_554  A
C1375      C1376   1.395       .  A
C1375      F1382   1.351       .  S
C1376      C1377   1.408   1_556  A
C1376      F1381   1.358       .  S
C1377      C1378   1.412   1_655  A
C1378      F1379   1.357       .  S
C1383      C1384   1.412   1_556  A
C1383      C1388   1.400       .  A
C1383      F1390   1.351       .  S
C1384      C1385   1.410       .  A
C1385      C1386   1.402       .  A
C1385      F1392   1.358       .  S
C1386      C1387   1.404   1_554  A
C1386      F1391   1.358       .  S
C1387      C1388   1.399       .  A
C1388      F1389   1.358       .  S
