geometry optimzed in LAMMPS
_audit_creation_date              2020-12-01 
_audit_creation_method            'lammps2cif' 
_symmetry_space_group_name_H-M    'P1' 
_symmetry_Int_Tables_number       1 
_symmetry_cell_setting            triclinic 
loop_ 
_symmetry_equiv_pos_as_xyz 
  x,y,z 
_cell_length_a                    51.60228911 
_cell_length_b                    44.90327968020743 
_cell_length_c                    41.32667428383623 
_cell_angle_alpha                 90.04588930173261 
_cell_angle_beta                  89.97622444111127 
_cell_angle_gamma                 87.65623385712284 
loop_ 
_atom_site_label 
_atom_site_type_symbol 
_atom_site_fract_x 
_atom_site_fract_y 
_atom_site_fract_z 
_atom_site_charge 
C1          C  0.70404986  0.28659080  0.24843143     0.86200
C2          C  0.68635939  0.28636079  0.21858374    -0.54100
C3          C  0.67107294  0.26240398  0.21676578     0.09100
C4          C  0.67508711  0.24016916  0.24468686     0.20100
C5          C  0.68598630  0.28283646  0.27759528    -0.54800
C6          C  0.67035528  0.25896709  0.27561981     0.09200
C7          C  0.71939083  0.25635223  0.24736400    -0.54300
C8          C  0.70437505  0.23214369  0.24443921     0.09800
H9          H  0.68590632  0.30384725  0.20041439     0.14300
H10         H  0.66296395  0.22042487  0.24276277     0.00000
H11         H  0.68541959  0.29807954  0.29801664     0.14600
H12         H  0.74013547  0.25347508  0.25054841     0.14400
C13         C  0.80235512  0.03222946  0.25374990     0.86200
C14         C  0.82177155  0.03055850  0.28196602    -0.54100
C15         C  0.83642611  0.50465792  0.28287075     0.09100
C16         C  0.83087165  0.48272122  0.25527726     0.20100
C17         C  0.82013137  0.02713998  0.22392414    -0.54800
C18         C  0.83459028  0.50080079  0.22413040     0.09200
C19         C  0.78686368  0.50410945  0.25566682    -0.54300
C20         C  0.80152826  0.47815258  0.25659810     0.09800
H21         H  0.82454806  0.04852825  0.29899680     0.14300
H22         H  0.84276433  0.46158919  0.25618337     0.00000
H23         H  0.82208990  0.04335729  0.20474224     0.14600
H24         H  0.76579353  0.50461588  0.25533249     0.14400
C25         C  0.30448040  0.19734412  0.24897205     0.86200
C26         C  0.32060613  0.20100010  0.21816478    -0.54100
C27         C  0.33334156  0.22693017  0.21654225     0.09100
C28         C  0.32949268  0.24705080  0.24667876     0.20100
C29         C  0.32452321  0.20097126  0.27646298    -0.54800
C30         C  0.33753383  0.22693560  0.27548310     0.09200
C31         C  0.28699164  0.22583022  0.25139487    -0.54300
C32         C  0.29990076  0.25182530  0.25064919     0.09800
H33         H  0.32237360  0.18403938  0.19944423     0.14300
H34         H  0.33984720  0.26818713  0.24560007     0.00000
H35         H  0.32869254  0.18511425  0.29540985     0.14600
H36         H  0.26605472  0.22536530  0.25370792     0.14400
C37         C  0.19986036  0.00791177  0.25304245     0.86200
C38         C  0.18424720  0.00261272  0.22202568    -0.54100
C39         C  0.17121447  0.47628625  0.22208558     0.09100
C40         C  0.17461924  0.45772134  0.25299297     0.20100
C41         C  0.17959777  0.00598443  0.28053067    -0.54800
C42         C  0.16656974  0.47923619  0.28029587     0.09200
C43         C  0.21737945  0.47837241  0.25746244    -0.54300
C44         C  0.20406319  0.45263201  0.25696013     0.09800
H45         H  0.18313673  0.01839881  0.20212390     0.14300
H46         H  0.16372404  0.43688057  0.25282586     0.00000
H47         H  0.17621109  0.02211021  0.29957696     0.14600
H48         H  0.23831190  0.47839104  0.26007851     0.14400
O49         O  0.02977500  0.48948206  0.03564055    -0.74700
O50         O  0.97676860  0.49532568  0.47168399    -0.74800
O51         O  0.97762025  0.49442913  0.03793310    -0.74800
O52         O  0.02908517  0.48910143  0.46938802    -0.74900
O53         O  0.02658902  0.43964253  0.46968959    -0.74800
O54         O  0.97540676  0.44495529  0.03729268    -0.74800
O55         O  0.97411757  0.44589990  0.47186029    -0.74700
O56         O  0.02778429  0.44006922  0.03594512    -0.74800
Ni57       Ni  0.00289679  0.49389153  0.00404059     1.25400
Ni58       Ni  0.00098292  0.44087074  0.00370808     1.25400
C59         C  0.03760445  0.46396162  0.04649559     0.87500
C60         C  0.96636300  0.47166791  0.46154283     0.87400
C61         C  0.96853539  0.47043324  0.04919648     0.87400
C62         C  0.03615929  0.46336479  0.45838033     0.87600
O63         O  0.47815946  0.22066580  0.03141706    -0.74700
O64         O  0.52965231  0.22026152  0.46553135    -0.74800
O65         O  0.53073472  0.22052574  0.02994995    -0.74800
O66         O  0.47716965  0.22010402  0.46698749    -0.74900
O67         O  0.47477855  0.26975194  0.46711232    -0.74800
O68         O  0.52946356  0.27022246  0.02915861    -0.74800
O69         O  0.52712703  0.26979373  0.46446789    -0.74700
O70         O  0.47671417  0.27030707  0.03192578    -0.74800
Ni71       Ni  0.50399401  0.21884444  0.99797749     1.25400
Ni72       Ni  0.50195263  0.27200117  0.99786687     1.25400
C73         C  0.46892567  0.24548625  0.04277270     0.87500
C74         C  0.53664223  0.24496510  0.45349878     0.87400
C75         C  0.53929235  0.24536833  0.03959716     0.87400
C76         C  0.46705216  0.24479753  0.45653405     0.87600
C77         C  0.10802691  0.99065091  0.33570374    -0.11700
C78         C  0.11188964  0.46416906  0.35599464     0.14900
C79         C  0.13179521  0.44257978  0.34901684     0.01800
C80         C  0.14860352  0.44727133  0.32303192    -0.16000
C81         C  0.14615860  0.47323987  0.30423886    -0.10900
C82         C  0.12446681  0.99473763  0.30939682     0.08500
C83         C  0.09409261  0.46172582  0.38377526     0.09500
S84         S  0.13731264  0.40917884  0.37270059    -0.25200
H85         H  0.16440673  0.43119209  0.31833780     0.19800
S86         S  0.11687154  0.02590222  0.28301633    -0.30900
H87         H  0.09172765  0.00625332  0.33955559     0.10100
C88         C  0.09565905  0.48117587  0.41038945     0.03300
C89         C  0.07659796  0.48091641  0.43446428    -0.13200
C90         C  0.05603353  0.46145140  0.43266615    -0.08900
C91         C  0.05494309  0.44135169  0.40634667     0.06700
C92         C  0.07408267  0.44158716  0.38232005    -0.13900
S93         S  0.12199690  0.50633323  0.41367742    -0.30900
H94         H  0.07765661  0.49603736  0.45481097     0.11000
S95         S  0.02881311  0.41641895  0.40076972    -0.28000
H96         H  0.07280593  0.42682796  0.36166558     0.08200
H97         H  0.12799744  0.01322390  0.25494154     0.26600
H98         H  0.11548453  0.51766786  0.44449593     0.21400
H99         H  0.00925210  0.43720799  0.41065085     0.26800
H100        H  0.12650419  0.42012861  0.40177696     0.15600
C101        C  0.09298842  0.43813083  0.10258521    -0.11700
C102        C  0.09534448  0.46358585  0.12181170     0.14900
C103        C  0.07917385  0.48902973  0.11581667     0.01800
C104        C  0.06043506  0.48816183  0.09153956    -0.16000
C105        C  0.05777094  0.46269532  0.07215634    -0.10900
C106        C  0.07455438  0.43740808  0.07761999     0.08500
C107        C  0.11500562  0.46321549  0.14777960     0.09500
S108        S  0.08397688  0.02360155  0.13609929    -0.25200
H109        H  0.04790311  0.50778281  0.08768374     0.19800
S110        S  0.07361298  0.40446618  0.05255741    -0.30900
H111        H  0.10566279  0.41880792  0.10725364     0.10100
C112        C  0.10793425  0.46160486  0.18064548     0.03300
C113        C  0.12697612  0.46446080  0.20450971    -0.13200
C114        C  0.15287945  0.46893262  0.19606653    -0.08900
C115        C  0.16013431  0.46853497  0.16310685     0.06700
C116        C  0.14109715  0.46593783  0.13932792    -0.13900
S117        S  0.07515689  0.95555859  0.19024380    -0.30900
H118        H  0.12152276  0.96383760  0.22883807     0.11000
S119        S  0.19328899  0.47090468  0.14989331    -0.28000
H120        H  0.14656394  0.46657534  0.11401719     0.08200
H121        H  0.09741877  0.39130333  0.06281721     0.26600
H122        H  0.07861010  0.95657873  0.22398624     0.21400
H123        H  0.20444665  0.45721724  0.17744333     0.26800
H124        H  0.11076446  0.02027790  0.14191229     0.15600
C125        C  0.24746472  0.38588930  0.28180399    -0.11700
C126        C  0.24342086  0.36616642  0.25610031     0.14900
C127        C  0.22501838  0.37427265  0.23199446     0.01800
C128        C  0.21224431  0.40239696  0.23319735    -0.16000
C129        C  0.21691680  0.42249552  0.25834683    -0.10900
C130        C  0.23416322  0.41368995  0.28344199     0.08500
C131        C  0.25874606  0.33744739  0.25518704     0.09500
S132        S  0.21705053  0.34992151  0.19902258    -0.25200
H133        H  0.19873426  0.40879108  0.21411266     0.19800
S134        S  0.23937040  0.43642103  0.31864951    -0.30900
H135        H  0.26105942  0.37951052  0.30079392     0.10100
C136        C  0.27885336  0.33209203  0.23254544     0.03300
C137        C  0.29264658  0.30446204  0.23251954    -0.13200
C138        C  0.28652243  0.28175474  0.25420745    -0.08900
C139        C  0.26735936  0.28795029  0.27813852     0.06700
C140        C  0.25353536  0.31546346  0.27807189    -0.13900
S141        S  0.28721799  0.36057195  0.20397359    -0.30900
H142        H  0.30811335  0.30046052  0.21531043     0.11000
S143        S  0.26069402  0.26262778  0.31067151    -0.28000
H144        H  0.23869314  0.31990287  0.29620799     0.08200
H145        H  0.21415423  0.44952947  0.31953328     0.26600
H146        H  0.30610456  0.34337756  0.18692925     0.21400
H147        H  0.28635185  0.25107345  0.31342799     0.26800
H148        H  0.22265184  0.32297172  0.21532513     0.15600
C149        C  0.25666932  0.13710207  0.22359613    -0.11700
C150        C  0.26015990  0.11581573  0.24806700     0.14900
C151        C  0.27822912  0.12063931  0.27279260     0.01800
C152        C  0.29204926  0.14680016  0.27301381    -0.16000
C153        C  0.28885361  0.16869041  0.24853744    -0.10900
C154        C  0.27062385  0.16337212  0.22346458     0.08500
C155        C  0.24377461  0.08946957  0.24823136     0.09500
S156        S  0.28428505  0.09447186  0.30537649    -0.25200
H157        H  0.30507287  0.14923449  0.29277387     0.19800
S158        S  0.26434791  0.18996750  0.19119598    -0.30900
H159        H  0.24254517  0.13325926  0.20487188     0.10100
C160        C  0.22263887  0.08777055  0.26942559     0.03300
C161        C  0.20856507  0.06173377  0.27045598    -0.13200
C162        C  0.21522129  0.03666303  0.25089176    -0.08900
C163        C  0.23575772  0.03947300  0.22815288     0.06700
C164        C  0.24980789  0.06564577  0.22737760    -0.13900
S165        S  0.21317690  0.11921522  0.29478488    -0.30900
H166        H  0.19205594  0.06195526  0.28610262     0.11000
S167        S  0.24422173  0.01028433  0.19933913    -0.28000
H168        H  0.26579938  0.06758971  0.21066311     0.08200
H169        H  0.24734850  0.17283434  0.17306205     0.26600
H170        H  0.19377641  0.10521521  0.31238697     0.21400
H171        H  0.26756092  0.52263062  0.18823552     0.26800
H172        H  0.27882853  0.06864038  0.28786113     0.15600
C173        C  0.39817747  0.24821661  0.32222308    -0.11700
C174        C  0.39102293  0.24087844  0.35386512     0.14900
C175        C  0.36574164  0.23150246  0.35983629     0.01800
C176        C  0.34842460  0.22907441  0.33405761    -0.16000
C177        C  0.35587095  0.23474854  0.30192483    -0.10900
C178        C  0.38101398  0.24508853  0.29614016     0.08500
C179        C  0.41064612  0.24209057  0.37992385     0.09500
S180        S  0.35463236  0.22131127  0.39957055    -0.25200
H181        H  0.32912261  0.22162623  0.33905844     0.19800
S182        S  0.39228236  0.25285850  0.25586121    -0.30900
H183        H  0.41757000  0.25567532  0.31797546     0.10100
C184        C  0.43054360  0.21980906  0.38267609     0.03300
C185        C  0.44841722  0.22113246  0.40811439    -0.13200
C186        C  0.44677422  0.24418196  0.43115470    -0.08900
C187        C  0.42633185  0.26610392  0.42871214     0.06700
C188        C  0.40877023  0.26504030  0.40291750    -0.13900
S189        S  0.43281638  0.18927369  0.35417106    -0.30900
H190        H  0.46397821  0.20428869  0.40982718     0.11000
S191        S  0.42067205  0.29498587  0.45850092    -0.28000
H192        H  0.39313650  0.28181969  0.40114492     0.08200
H193        H  0.41849244  0.25641551  0.26371843     0.26600
H194        H  0.45344997  0.17332812  0.36934977     0.21400
H195        H  0.42689777  0.27656467  0.48516305     0.26800
H196        H  0.37859226  0.20946415  0.41082015     0.15600
C197        C  0.42504043  0.26584080  0.11476122    -0.11700
C198        C  0.40799340  0.24232531  0.11412464     0.14900
C199        C  0.41075536  0.22045115  0.08970655     0.01800
C200        C  0.43095565  0.22192527  0.06725787    -0.16000
C201        C  0.44841427  0.24514304  0.06801300    -0.10900
C202        C  0.44531064  0.26737066  0.09225546     0.08500
C203        C  0.38922588  0.23939385  0.14096947     0.09500
S204        S  0.38946043  0.18972095  0.08635101    -0.25200
H205        H  0.43281039  0.20490393  0.04869891     0.19800
S206        S  0.46743559  0.29705866  0.09727881    -0.30900
H207        H  0.42318364  0.28244414  0.13376464     0.10100
C208        C  0.39454292  0.21952529  0.16670026     0.03300
C209        C  0.37588943  0.21605981  0.19091300    -0.13200
C210        C  0.35204078  0.23219971  0.19014653    -0.08900
C211        C  0.34638517  0.25138085  0.16375094     0.06700
C212        C  0.36530203  0.25536832  0.13990756    -0.13900
S213        S  0.42517279  0.19864495  0.16874514    -0.30900
H214        H  0.37987808  0.20079999  0.21072872     0.11000
S215        S  0.31506866  0.26976995  0.15765523    -0.28000
H216        H  0.36096768  0.27004653  0.11966322     0.08200
H217        H  0.48984253  0.27898352  0.09119947     0.26600
H218        H  0.41923292  0.18142093  0.19597237     0.21400
H219        H  0.30056542  0.24975249  0.17557770     0.26800
H220        H  0.36727969  0.20489537  0.09879310     0.15600
C221        C  0.90890232  0.50098619  0.41181430    -0.11700
C222        C  0.90859622  0.47989095  0.38685141     0.14900
C223        C  0.92645348  0.45525022  0.38741734     0.01800
C224        C  0.94472748  0.45273375  0.41242042    -0.16000
C225        C  0.94541291  0.47417846  0.43716636    -0.10900
C226        C  0.92676129  0.49818785  0.43714956     0.08500
C227        C  0.89009083  0.48509930  0.35998114     0.09500
S228        S  0.92716682  0.42665887  0.35671952    -0.25200
H229        H  0.95879441  0.43415528  0.41222273     0.19800
S230        S  0.92095775  0.02138023  0.47296188    -0.30900
H231        H  0.89259406  0.01697221  0.41455909     0.10100
C232        C  0.86342760  0.48059903  0.36390179     0.03300
C233        C  0.84636503  0.48753310  0.33836990    -0.13200
C234        C  0.85547267  0.49855326  0.30892982    -0.08900
C235        C  0.88200626  0.00501593  0.30611802     0.06700
C236        C  0.89908913  0.99772099  0.33145415    -0.13900
S237        S  0.85124050  0.46572232  0.40126674    -0.30900
H238        H  0.82579450  0.48444735  0.34128437     0.11000
S239        S  0.89521984  0.02367659  0.27156616    -0.28000
H240        H  0.91941346  0.00258930  0.32910346     0.08200
H241        H  0.92850775  0.00011341  0.49648970     0.26600
H242        H  0.82524517  0.46416965  0.39138590     0.21400
H243        H  0.87218064  0.03846064  0.26138868     0.26800
H244        H  0.90053917  0.42877321  0.34948401     0.15600
C245        C  0.93252147  0.99603011  0.12550084    -0.11700
C246        C  0.91201407  0.47567468  0.12566325     0.14900
C247        C  0.91066704  0.45378592  0.10125657     0.01800
C248        C  0.92937669  0.45246686  0.07670843    -0.16000
C249        C  0.94985846  0.47212426  0.07633008    -0.10900
C250        C  0.95184290  0.49306378  0.10173777     0.08500
C251        C  0.89174366  0.47970753  0.15079503     0.09500
S252        S  0.88564364  0.42691900  0.10020208    -0.25200
H253        H  0.92783035  0.43605424  0.05763896     0.19800
S254        S  0.97850659  0.01836712  0.10557373    -0.30900
H255        H  0.93358523  0.01292659  0.14415335     0.10100
C256        C  0.89693205  0.47331535  0.18356214     0.03300
C257        C  0.87749188  0.47896074  0.20671857    -0.13200
C258        C  0.85309135  0.49147535  0.19798243    -0.08900
C259        C  0.84744378  0.49578204  0.16472502     0.06700
C260        C  0.86694841  0.49046676  0.14167100    -0.13900
S261        S  0.92823654  0.45775575  0.19587265    -0.30900
H262        H  0.88161073  0.47418930  0.23182984     0.11000
S263        S  0.81536522  0.00539668  0.15017690    -0.28000
H264        H  0.86264194  0.99414091  0.11660256     0.08200
H265        H  0.99749882  0.99663572  0.09629243     0.26600
H266        H  0.92310448  0.45696105  0.22929078     0.21400
H267        H  0.80225361  0.99060505  0.17489915     0.26800
H268        H  0.88231734  0.42518490  0.13390960     0.15600
C269        C  0.75905994  0.10155864  0.27721245    -0.11700
C270        C  0.75190917  0.11285368  0.24675811     0.14900
C271        C  0.75928517  0.09635248  0.21893902     0.01800
C272        C  0.77545619  0.07074839  0.22202660    -0.16000
C273        C  0.78423193  0.06023749  0.25246921    -0.10900
C274        C  0.77355146  0.07468480  0.28047560     0.08500
C275        C  0.73823521  0.14262939  0.24469132     0.09500
S276        S  0.74818754  0.10629288  0.17881976    -0.25200
H277        H  0.78048182  0.05852874  0.20019811     0.19800
S278        S  0.77580538  0.05993140  0.32105146    -0.30900
H279        H  0.75285696  0.11355892  0.29881214     0.10100
C280        C  0.71464812  0.14934649  0.26102642     0.03300
C281        C  0.70384352  0.17857812  0.26021706    -0.13200
C282        C  0.71553258  0.20105713  0.24242476    -0.08900
C283        C  0.73808110  0.19354384  0.22408924     0.06700
C284        C  0.74962548  0.16495506  0.22648240    -0.13900
S285        S  0.69776870  0.12063884  0.28201871    -0.30900
H286        H  0.68640826  0.18401311  0.27390941     0.11000
S287        S  0.75238169  0.21859361  0.19568838    -0.28000
H288        H  0.76750581  0.15988376  0.21347353     0.08200
H289        H  0.77336548  0.03003647  0.31205461     0.26600
H290        H  0.67752722  0.13918876  0.29450318     0.21400
H291        H  0.72869929  0.23270474  0.18636781     0.26800
H292        H  0.72442161  0.11979297  0.18875613     0.15600
C293        C  0.72221112  0.36916039  0.25384211    -0.11700
C294        C  0.74881828  0.36737605  0.24730162     0.14900
C295        C  0.76101494  0.33939458  0.24100731     0.01800
C296        C  0.74658818  0.31375709  0.24231650    -0.16000
C297        C  0.71973185  0.31501117  0.24931787    -0.10900
C298        C  0.70739863  0.34367430  0.25404392     0.10500
C299        C  0.76338652  0.39508330  0.24813888     0.09500
S300        S  0.79482491  0.33498072  0.23006951    -0.25200
H301        H  0.75672785  0.29312465  0.23604542     0.19800
S302        S  0.67269431  0.34878670  0.25951341    -0.30900
H303        H  0.71302231  0.39084215  0.25857026     0.10100
C304        C  0.75828261  0.41832892  0.22588724     0.03300
C305        C  0.77128397  0.44493749  0.22905909    -0.13200
C306        C  0.78960322  0.44871525  0.25373722    -0.08900
C307        C  0.79551936  0.42487037  0.27509840     0.06700
C308        C  0.78212919  0.39844081  0.27225746    -0.13900
S309        S  0.73559657  0.41395095  0.19308871    -0.30900
H310        H  0.76718481  0.46297879  0.21221824     0.11000
S311        S  0.81893664  0.42818490  0.30710375    -0.28000
H312        H  0.78587556  0.38039650  0.28920012     0.08200
H313        H  0.67129702  0.38012664  0.25895876     0.26600
H314        H  0.74037987  0.44089616  0.17724754     0.21400
H315        H  0.81819769  0.39874598  0.31855912     0.26800
H316        H  0.79622263  0.36242834  0.21393461     0.15600
C317        C  0.58260866  0.22159461  0.38438858    -0.11700
C318        C  0.59472895  0.24836666  0.37823237     0.14900
C319        C  0.58684238  0.27416566  0.39579389     0.01800
C320        C  0.56830578  0.27215643  0.42033497    -0.16000
C321        C  0.55616937  0.24527883  0.42689527    -0.10900
C322        C  0.56309980  0.21988420  0.40779744     0.08500
C323        C  0.61476889  0.24881708  0.35250981     0.09500
S324        S  0.59909410  0.31048765  0.38759867    -0.25200
H325        H  0.56310356  0.29204068  0.43411520     0.19800
S326        S  0.54710861  0.18505283  0.41050776    -0.30900
H327        H  0.58803615  0.20196177  0.37028004     0.10100
C328        C  0.64089886  0.25407343  0.35944060     0.03300
C329        C  0.65868320  0.25601035  0.33393747    -0.13200
C330        C  0.65102352  0.25281187  0.30145912    -0.08900
C331        C  0.62492607  0.24622005  0.29475551     0.06700
C332        C  0.60722911  0.24421805  0.32039570    -0.13900
S333        S  0.65171018  0.25794965  0.40075581    -0.30900
H334        H  0.67871261  0.26029713  0.33929944     0.11000
S335        S  0.61307096  0.24224058  0.25394852    -0.28000
H336        H  0.58711982  0.23994773  0.31546559     0.08200
H337        H  0.52201360  0.19859892  0.40996079     0.26600
H338        H  0.67732192  0.26526151  0.39354967     0.21400
H339        H  0.58719176  0.23657789  0.26167103     0.26800
H340        H  0.60360490  0.30582818  0.35439807     0.15600
C341        C  0.61603498  0.27586800  0.15686926    -0.11700
C342        C  0.61803860  0.24980619  0.13824390     0.14900
C343        C  0.63757828  0.22785550  0.14554556     0.01800
C344        C  0.65420225  0.23223857  0.17177283    -0.16000
C345        C  0.65223754  0.25842865  0.19029519    -0.10900
C346        C  0.63267926  0.28033510  0.18288098     0.08500
C347        C  0.59895306  0.24641734  0.11193513     0.09500
S348        S  0.64261113  0.19413266  0.12221194    -0.25200
H349        H  0.66922992  0.21543418  0.17727972     0.19800
S350        S  0.62695583  0.31380202  0.20640400    -0.30900
H351        H  0.60092478  0.29261471  0.15150145     0.10100
C352        C  0.57850522  0.22668354  0.11461145     0.03300
C353        C  0.55970411  0.22610245  0.09010278    -0.13200
C354        C  0.56070652  0.24523826  0.06329354    -0.08900
C355        C  0.58167722  0.26434159  0.06030081     0.06700
C356        C  0.60032385  0.26498822  0.08479707    -0.13900
S357        S  0.57554281  0.20349997  0.15002890    -0.30900
H358        H  0.54364423  0.21145945  0.09234455     0.11000
S359        S  0.58619811  0.28771336  0.02544851    -0.28000
H360        H  0.61611638  0.28006400  0.08269743     0.08200
H361        H  0.63453122  0.30128472  0.23624601     0.26600
H362        H  0.55275658  0.18973085  0.14052695     0.21400
H363        H  0.57686545  0.26723348  0.00292561     0.26800
H364        H  0.63201691  0.20523765  0.09310177     0.15600
C365        C  0.70502051  0.28700440  0.74822918     0.86200
C366        C  0.68731228  0.28672033  0.71840713    -0.54100
C367        C  0.67196079  0.26281715  0.71671195     0.09100
C368        C  0.67593017  0.24068912  0.74473976     0.20100
C369        C  0.68696688  0.28342727  0.77744728    -0.54800
C370        C  0.67124580  0.25962771  0.77558862     0.09200
C371        C  0.72028695  0.25672176  0.74731564    -0.54300
C372        C  0.70520432  0.23255646  0.74451602     0.09800
H373        H  0.68689210  0.30414345  0.70016471     0.14300
H374        H  0.66375508  0.22098318  0.74291232     0.00000
H375        H  0.68647026  0.29873153  0.79781249     0.14600
H376        H  0.74103365  0.25382973  0.75053703     0.14400
C377        C  0.80214889  0.03206723  0.75356887     0.86200
C378        C  0.82156731  0.03041117  0.78177866    -0.54100
C379        C  0.83684139  0.50549513  0.78254538     0.09100
C380        C  0.83166556  0.48377652  0.75462124     0.20100
C381        C  0.81992547  0.02704938  0.72372991    -0.54800
C382        C  0.83511295  0.50235147  0.72379520     0.09200
C383        C  0.78736434  0.50426112  0.75528530    -0.54300
C384        C  0.80241022  0.47855447  0.75581336     0.09800
H385        H  0.82431000  0.04836574  0.79883946     0.14300
H386        H  0.84395776  0.46292714  0.75514325     0.00000
H387        H  0.82184731  0.04329001  0.70456328     0.14600
H388        H  0.76630352  0.50437202  0.75499885     0.14400
C389        C  0.30408249  0.19736546  0.74895544     0.86200
C390        C  0.32012478  0.20126233  0.71812804    -0.54100
C391        C  0.33263577  0.22734016  0.71653640     0.09100
C392        C  0.32862672  0.24738376  0.74669679     0.20100
C393        C  0.32410982  0.20120861  0.77641206    -0.54800
C394        C  0.33688120  0.22732953  0.77546012     0.09200
C395        C  0.28633987  0.22564219  0.75147106    -0.54300
C396        C  0.29901129  0.25179205  0.75071350     0.09800
H397        H  0.32207552  0.18430756  0.69941881     0.14300
H398        H  0.33876502  0.26866367  0.74562348     0.00000
H399        H  0.32843106  0.18533620  0.79538376     0.14600
H400        H  0.26541916  0.22493205  0.75383409     0.14400
C401        C  0.20022752  0.00744160  0.75329111     0.86200
C402        C  0.18458412  0.00221347  0.72228235    -0.54100
C403        C  0.17105971  0.47597723  0.72183766     0.09100
C404        C  0.17416712  0.45778943  0.75307327     0.20100
C405        C  0.17996328  0.00560422  0.78078125    -0.54800
C406        C  0.16596607  0.47957169  0.78005964     0.09200
C407        C  0.21690108  0.47841642  0.75774389    -0.54300
C408        C  0.20354764  0.45270353  0.75736723     0.09800
H409        H  0.18351489  0.01800508  0.70238283     0.14300
H410        H  0.16329074  0.43693528  0.75310882     0.00000
H411        H  0.17660531  0.02176018  0.79982003     0.14600
H412        H  0.23783007  0.47840887  0.76040045     0.14400
O413        O  0.03091404  0.48954167  0.53457742    -0.74700
O414        O  0.97578608  0.49488234  0.97248041    -0.74800
O415        O  0.97874152  0.49566792  0.53708539    -0.74800
O416        O  0.02820118  0.48982588  0.97029844    -0.74900
O417        O  0.02678951  0.44028844  0.97027095    -0.74800
O418        O  0.97601509  0.44626624  0.53755416    -0.74800
O419        O  0.97426472  0.44532592  0.97152379    -0.74700
O420        O  0.02839438  0.44013714  0.53530030    -0.74800
Ni421      Ni  0.00395163  0.49413657  0.50312708     1.25400
Ni422      Ni  0.00116602  0.44119365  0.50359174     1.25400
C423        C  0.03865865  0.46396372  0.54533338     0.87500
C424        C  0.96604100  0.47107085  0.96167429     0.87400
C425        C  0.96939829  0.47204338  0.54890490     0.87400
C426        C  0.03587279  0.46434125  0.95911700     0.87600
O427        O  0.47817957  0.22062088  0.53249745    -0.74700
O428        O  0.52968900  0.22070039  0.96450626    -0.74800
O429        O  0.53076224  0.22046259  0.53099355    -0.74800
O430        O  0.47718117  0.22050742  0.96591530    -0.74900
O431        O  0.47474584  0.27015704  0.96638430    -0.74800
O432        O  0.52947147  0.27015277  0.52990663    -0.74800
O433        O  0.52713571  0.27023224  0.96372809    -0.74700
O434        O  0.47671554  0.27026432  0.53266415    -0.74800
Ni435      Ni  0.50399437  0.21860611  0.49905354     1.25400
Ni436      Ni  0.50196223  0.27176126  0.49860315     1.25400
C437        C  0.46892773  0.24550319  0.54366934     0.87500
C438        C  0.53671950  0.24546804  0.95266850     0.87400
C439        C  0.53932563  0.24535835  0.54047638     0.87400
C440        C  0.46701447  0.24525065  0.95567663     0.87600
C441        C  0.10818085  0.99088131  0.83569817    -0.11700
C442        C  0.11205090  0.46601851  0.85694258     0.14900
C443        C  0.13291967  0.44527455  0.85150153     0.01800
C444        C  0.14937093  0.44916518  0.82497685    -0.16000
C445        C  0.14572705  0.47370142  0.80424942    -0.10900
C446        C  0.12473323  0.99481979  0.80946927     0.08500
C447        C  0.09413478  0.46385823  0.88467659     0.09500
S448        S  0.14013905  0.41415681  0.87802156    -0.25200
H449        H  0.16584531  0.43376695  0.82139039     0.19800
S450        S  0.11742250  0.02604843  0.78306829    -0.30900
H451        H  0.09196329  0.00661213  0.83946403     0.10100
C452        C  0.09421088  0.48486774  0.90999232     0.03300
C453        C  0.07506861  0.48429701  0.93398841    -0.13200
C454        C  0.05581764  0.46305589  0.93334557    -0.08900
C455        C  0.05616544  0.44161250  0.90817295     0.06700
C456        C  0.07545437  0.44208645  0.88435752    -0.13900
S457        S  0.11879235  0.51235714  0.91178741    -0.30900
H458        H  0.07507104  0.50053527  0.95336882     0.11000
S459        S  0.03161394  0.41451925  0.90360243    -0.28000
H460        H  0.07527486  0.42615194  0.86465749     0.08200
H461        H  0.12850186  0.01325103  0.75502690     0.26600
H462        H  0.11181106  0.52419386  0.94223794     0.21400
H463        H  0.01090180  0.43459214  0.91139173     0.26800
H464        H  0.13029184  0.42761603  0.90642953     0.15600
C465        C  0.09535387  0.43784640  0.59896649    -0.11700
C466        C  0.09659757  0.46204886  0.62027495     0.14900
C467        C  0.07943022  0.48701345  0.61611858     0.01800
C468        C  0.06081729  0.48677937  0.59164225    -0.16000
C469        C  0.05924223  0.46251095  0.57033573    -0.10900
C470        C  0.07715331  0.43795461  0.57380014     0.08500
C471        C  0.11619224  0.46111782  0.64634334     0.09500
S472        S  0.08444608  0.02364709  0.63616129    -0.25200
H473        H  0.04742717  0.50587817  0.58924577     0.19800
S474        S  0.07874902  0.40685178  0.54618802    -0.30900
H475        H  0.10890235  0.41893200  0.60172139     0.10100
C476        C  0.10904654  0.45803232  0.67903808     0.03300
C477        C  0.12768967  0.46157255  0.70325523    -0.13200
C478        C  0.15334400  0.46790802  0.69533747    -0.08900
C479        C  0.16086609  0.46839757  0.66245842     0.06700
C480        C  0.14215624  0.46540548  0.63833672    -0.13900
S481        S  0.07531698  0.95562867  0.69055325    -0.30900
H482        H  0.12171845  0.96375914  0.72913390     0.11000
S483        S  0.19398188  0.47222570  0.64975159    -0.28000
H484        H  0.14775103  0.46702864  0.61313389     0.08200
H485        H  0.07485523  0.42444959  0.51830148     0.26600
H486        H  0.07887407  0.95604628  0.72429692     0.21400
H487        H  0.20516876  0.45811579  0.67705089     0.26800
H488        H  0.11121218  0.02016517  0.64205349     0.15600
C489        C  0.24652341  0.38558213  0.78211847    -0.11700
C490        C  0.24222405  0.36589864  0.75645214     0.14900
C491        C  0.22382740  0.37418778  0.73241944     0.01800
C492        C  0.21135634  0.40246337  0.73360527    -0.16000
C493        C  0.21628059  0.42252123  0.75871238    -0.10900
C494        C  0.23349678  0.41354316  0.78376730     0.08500
C495        C  0.25745638  0.33714008  0.75533581     0.09500
S496        S  0.21549051  0.34986913  0.69957919    -0.25200
H497        H  0.19786499  0.40899665  0.71454817     0.19800
S498        S  0.23905709  0.43625351  0.81889730    -0.30900
H499        H  0.26013663  0.37906727  0.80104022     0.10100
C500        C  0.27738640  0.33179899  0.73245589     0.03300
C501        C  0.29127248  0.30424554  0.73238557    -0.13200
C502        C  0.28539754  0.28157478  0.75422553    -0.08900
C503        C  0.26631962  0.28768844  0.77828017     0.06700
C504        C  0.25242319  0.31515828  0.77829834    -0.13900
S505        S  0.28546659  0.36022602  0.70367398    -0.30900
H506        H  0.30665654  0.30029180  0.71505771     0.11000
S507        S  0.25987178  0.26233026  0.81085694    -0.28000
H508        H  0.23768940  0.31957828  0.79657587     0.08200
H509        H  0.21409403  0.45001515  0.81971571     0.26600
H510        H  0.30391164  0.34286376  0.68609882     0.21400
H511        H  0.28558006  0.25091366  0.81349427     0.26800
H512        H  0.22073689  0.32293503  0.71606939     0.15600
C513        C  0.25676400  0.13664445  0.72355588    -0.11700
C514        C  0.26054712  0.11529812  0.74790485     0.14900
C515        C  0.27872444  0.12018508  0.77248597     0.01800
C516        C  0.29228926  0.14650567  0.77273490    -0.16000
C517        C  0.28875542  0.16850651  0.74845534    -0.10900
C518        C  0.27049663  0.16306806  0.72344413     0.08500
C519        C  0.24423208  0.08890509  0.74823932     0.09500
S520        S  0.28518375  0.09388341  0.80483292    -0.25200
H521        H  0.30547910  0.14898503  0.79244962     0.19800
S522        S  0.26389732  0.18970234  0.69129578    -0.30900
H523        H  0.24255601  0.13273918  0.70492933     0.10100
C524        C  0.22320314  0.08721438  0.76959458     0.03300
C525        C  0.20912362  0.06119870  0.77072119    -0.13200
C526        C  0.21567021  0.03612552  0.75111862    -0.08900
C527        C  0.23615537  0.03888601  0.72829395     0.06700
C528        C  0.25019893  0.06505975  0.72739126    -0.13900
S529        S  0.21386536  0.11866228  0.79501490    -0.30900
H530        H  0.19266587  0.06145731  0.78648362     0.11000
S531        S  0.24454473  0.00964415  0.69951379    -0.28000
H532        H  0.26612234  0.06699447  0.71057039     0.08200
H533        H  0.24717121  0.17232022  0.67304255     0.26600
H534        H  0.19479326  0.10453432  0.81305787     0.21400
H535        H  0.26643368  0.52238567  0.68663723     0.26800
H536        H  0.27998434  0.06809913  0.78708937     0.15600
C537        C  0.39739798  0.24930087  0.82203439    -0.11700
C538        C  0.39044790  0.24163904  0.85365134     0.14900
C539        C  0.36528873  0.23191707  0.85970011     0.01800
C540        C  0.34792048  0.22939422  0.83399222    -0.16000
C541        C  0.35519942  0.23532460  0.80185539    -0.10900
C542        C  0.38018416  0.24611085  0.79601893     0.08500
C543        C  0.41020023  0.24279340  0.87955476     0.09500
S544        S  0.35440796  0.22138296  0.89942733    -0.25200
H545        H  0.32871998  0.22165983  0.83904648     0.19800
S546        S  0.39122460  0.25434297  0.75574998    -0.30900
H547        H  0.41670180  0.25701644  0.81774571     0.10100
C548        C  0.43030247  0.22070618  0.88182538     0.03300
C549        C  0.44833018  0.22196222  0.90709293    -0.13200
C550        C  0.44663640  0.24474278  0.93043498    -0.08900
C551        C  0.42599480  0.26645539  0.92848911     0.06700
C552        C  0.40827663  0.26547718  0.90285516    -0.13900
S553        S  0.43264573  0.19048748  0.85292848    -0.30900
H554        H  0.46403914  0.20527472  0.90844983     0.11000
S555        S  0.42027974  0.29491359  0.95873878    -0.28000
H556        H  0.39248998  0.28209556  0.90145267     0.08200
H557        H  0.41718028  0.25942853  0.76365016     0.26600
H558        H  0.45348497  0.17459098  0.86773406     0.21400
H559        H  0.42690005  0.27626261  0.98507961     0.26800
H560        H  0.37851185  0.20986192  0.91056333     0.15600
C561        C  0.42484892  0.26625077  0.61534797    -0.11700
C562        C  0.40783542  0.24270122  0.61480719     0.14900
C563        C  0.41069283  0.22067292  0.59056737     0.01800
C564        C  0.43095172  0.22203530  0.56819908    -0.16000
C565        C  0.44837488  0.24528852  0.56885314    -0.10900
C566        C  0.44517852  0.26767110  0.59291304     0.08500
C567        C  0.38897598  0.23990451  0.64155884     0.09500
S568        S  0.38944745  0.18988189  0.58734221    -0.25200
H569        H  0.43287575  0.20489797  0.54977306     0.19800
S570        S  0.46724220  0.29744088  0.59778341    -0.30900
H571        H  0.42291254  0.28297536  0.63421875     0.10100
C572        C  0.39416101  0.22007565  0.66735949     0.03300
C573        C  0.37536266  0.21660182  0.69138243    -0.13200
C574        C  0.35148993  0.23267514  0.69034534    -0.08900
C575        C  0.34597784  0.25182979  0.66389045     0.06700
C576        C  0.36504575  0.25584748  0.64024883    -0.13900
S577        S  0.42479241  0.19922911  0.66971847    -0.30900
H578        H  0.37925253  0.20138005  0.71126260     0.11000
S579        S  0.31465713  0.27008169  0.65742981    -0.28000
H580        H  0.36081418  0.27048040  0.61993519     0.08200
H581        H  0.48969023  0.27937928  0.59189389     0.26600
H582        H  0.41863138  0.18188550  0.69677001     0.21400
H583        H  0.30009830  0.24990796  0.67507002     0.26800
H584        H  0.36721188  0.20507541  0.59960679     0.15600
C585        C  0.90745421  0.49889759  0.91326848    -0.11700
C586        C  0.90881217  0.47972116  0.88650158     0.14900
C587        C  0.92822274  0.45666441  0.88538265     0.01800
C588        C  0.94627305  0.45383236  0.91061088    -0.16000
C589        C  0.94526721  0.47343767  0.93713048    -0.10900
C590        C  0.92516197  0.49575819  0.93873499     0.08500
C591        C  0.89037188  0.48536281  0.85962881     0.09500
S592        S  0.93122329  0.43054652  0.85227701    -0.25200
H593        H  0.96149174  0.43655277  0.90921516     0.19800
S594        S  0.92047838  0.02105329  0.97305316    -0.30900
H595        H  0.89210615  0.01668225  0.91464370     0.10100
C596        C  0.86388159  0.47954994  0.86285024     0.03300
C597        C  0.84684884  0.48684167  0.83740353    -0.13200
C598        C  0.85582876  0.49934554  0.80864332    -0.08900
C599        C  0.88177689  0.00502698  0.80605771     0.06700
C600        C  0.89880849  0.99777388  0.83145555    -0.13900
S601        S  0.85189214  0.46239273  0.89911322    -0.30900
H602        H  0.82639284  0.48280462  0.83982677     0.11000
S603        S  0.89504733  0.02375841  0.77158254    -0.28000
H604        H  0.91911641  0.00274011  0.82920646     0.08200
H605        H  0.92815337  0.99977240  0.99650886     0.26600
H606        H  0.82607378  0.46025823  0.88873248     0.21400
H607        H  0.87195960  0.03814985  0.76098025     0.26800
H608        H  0.90474058  0.43106816  0.84423454     0.15600
C609        C  0.93251102  0.99633288  0.62544618    -0.11700
C610        C  0.91256854  0.47897375  0.62499159     0.14900
C611        C  0.91188732  0.45591358  0.60183418     0.01800
C612        C  0.93064136  0.45414992  0.57736844    -0.16000
C613        C  0.95058782  0.47448992  0.57590042    -0.10900
C614        C  0.95185349  0.49676419  0.60006296     0.08500
C615        C  0.89244263  0.48302427  0.65027296     0.09500
S616        S  0.88771260  0.42802808  0.60235586    -0.25200
H617        H  0.92958306  0.43676543  0.55926431     0.19800
S618        S  0.97847917  0.01877565  0.60560307    -0.30900
H619        H  0.93349966  0.01326352  0.64406400     0.10100
C620        C  0.89806455  0.47747533  0.68310649     0.03300
C621        C  0.87861297  0.48256498  0.70635746    -0.13200
C622        C  0.85378915  0.49377805  0.69763531    -0.08900
C623        C  0.84782688  0.49750524  0.66439810     0.06700
C624        C  0.86730833  0.49263017  0.64121574    -0.13900
S625        S  0.92992939  0.46362130  0.69537519    -0.30900
H626        H  0.88298000  0.47830321  0.73151187     0.11000
S627        S  0.81529841  0.00530326  0.64993075    -0.28000
H628        H  0.86264774  0.99422380  0.61643716     0.08200
H629        H  0.99754512  0.99707538  0.59646301     0.26600
H630        H  0.92513927  0.46354283  0.72889057     0.21400
H631        H  0.80220096  0.99045839  0.67462656     0.26800
H632        H  0.88466384  0.42746213  0.63615752     0.15600
C633        C  0.75904489  0.10145689  0.77724325    -0.11700
C634        C  0.75194499  0.11286834  0.74682359     0.14900
C635        C  0.75917261  0.09635342  0.71895794     0.01800
C636        C  0.77522945  0.07064890  0.72195991    -0.16000
C637        C  0.78400711  0.06005505  0.75236500    -0.10900
C638        C  0.77339500  0.07448290  0.78042021     0.08500
C639        C  0.73851613  0.14278080  0.74483550     0.09500
S640        S  0.74804295  0.10643078  0.67889170    -0.25200
H641        H  0.78019199  0.05844201  0.70010099     0.19800
S642        S  0.77556805  0.05959445  0.82094539    -0.30900
H643        H  0.75292974  0.11345643  0.79888025     0.10100
C644        C  0.71498964  0.14972247  0.76120417     0.03300
C645        C  0.70440748  0.17904963  0.76042643    -0.13200
C646        C  0.71625099  0.20141498  0.74262690    -0.08900
C647        C  0.73877294  0.19370567  0.72431904     0.06700
C648        C  0.75009471  0.16500479  0.72667457    -0.13900
S649        S  0.69788921  0.12118132  0.78217738    -0.30900
H650        H  0.68700896  0.18463808  0.77412533     0.11000
S651        S  0.75330732  0.21862739  0.69597892    -0.28000
H652        H  0.76794101  0.15976230  0.71366105     0.08200
H653        H  0.77310315  0.02973416  0.81183055     0.26600
H654        H  0.67777164  0.13991268  0.79466029     0.21400
H655        H  0.72972412  0.23288689  0.68652305     0.26800
H656        H  0.72438741  0.12013146  0.68893370     0.15600
C657        C  0.72355892  0.36945169  0.75335887    -0.11700
C658        C  0.75006243  0.36755113  0.74618356     0.14900
C659        C  0.76204339  0.33952313  0.73952160     0.01800
C660        C  0.74754148  0.31395910  0.74119858    -0.16000
C661        C  0.72080357  0.31534279  0.74886852    -0.10900
C662        C  0.70863507  0.34406188  0.75378620     0.10500
C663        C  0.76475010  0.39518740  0.74678252     0.09500
S664        S  0.79562010  0.33497222  0.72756424    -0.25200
H665        H  0.75747022  0.29326997  0.73461022     0.19800
S666        S  0.67398586  0.34939151  0.75963864    -0.30900
H667        H  0.71452028  0.39116338  0.75834551     0.10100
C668        C  0.75908768  0.41876866  0.72513195     0.03300
C669        C  0.77204851  0.44539294  0.72836866    -0.13200
C670        C  0.79086721  0.44890411  0.75252394    -0.08900
C671        C  0.79746640  0.42464133  0.77307979     0.06700
C672        C  0.78409654  0.39819926  0.77020795    -0.13900
S673        S  0.73566793  0.41485459  0.69305952    -0.30900
H674        H  0.76745861  0.46369643  0.71203323     0.11000
S675        S  0.82170121  0.42734721  0.80420393    -0.28000
H676        H  0.78828890  0.37989029  0.78667988     0.08200
H677        H  0.67274365  0.38073483  0.75922561     0.26600
H678        H  0.74003441  0.44206442  0.67753290     0.21400
H679        H  0.82180103  0.39747630  0.81443392     0.26800
H680        H  0.79678475  0.36244811  0.71143277     0.15600
C681        C  0.58333440  0.22239922  0.88408438    -0.11700
C682        C  0.59531838  0.24927230  0.87800457     0.14900
C683        C  0.58715111  0.27503258  0.89545798     0.01800
C684        C  0.56843614  0.27290253  0.91978211    -0.16000
C685        C  0.55641029  0.24592783  0.92623694    -0.10900
C686        C  0.56366992  0.22055317  0.90727127     0.08500
C687        C  0.61542911  0.24985563  0.85236183     0.09500
S688        S  0.59925016  0.31145128  0.88738548    -0.25200
H689        H  0.56300970  0.29276941  0.93347523     0.19800
S690        S  0.54793846  0.18555214  0.90987375    -0.30900
H691        H  0.58898368  0.20278557  0.87006256     0.10100
C692        C  0.64152061  0.25526562  0.85936014     0.03300
C693        C  0.65937681  0.25711169  0.83391048    -0.13200
C694        C  0.65182501  0.25369369  0.80141469    -0.08900
C695        C  0.62574334  0.24705815  0.79465461     0.06700
C696        C  0.60799059  0.24511523  0.82023884    -0.13900
S697        S  0.65219965  0.25941416  0.90069296    -0.30900
H698        H  0.67938205  0.26146490  0.83933308     0.11000
S699        S  0.61396049  0.24293119  0.75383414    -0.28000
H700        H  0.58791047  0.24074108  0.81525525     0.08200
H701        H  0.52275765  0.19884594  0.90888825     0.26600
H702        H  0.67782896  0.26670010  0.89354918     0.21400
H703        H  0.58800167  0.23760379  0.76147890     0.26800
H704        H  0.60408511  0.30679753  0.85425371     0.15600
C705        C  0.61680424  0.27635272  0.65698241    -0.11700
C706        C  0.61853889  0.25013521  0.63859121     0.14900
C707        C  0.63798718  0.22808791  0.64594333     0.01800
C708        C  0.65475651  0.23251481  0.67201826    -0.16000
C709        C  0.65304002  0.25884528  0.69032606    -0.10900
C710        C  0.63359601  0.28086480  0.68283636     0.08500
C711        C  0.59928517  0.24670081  0.61246622     0.09500
S712        S  0.64272903  0.19418899  0.62284183    -0.25200
H713        H  0.66969623  0.21562248  0.67757516     0.19800
S714        S  0.62817910  0.31452870  0.70611828    -0.30900
H715        H  0.60177702  0.29318619  0.65157546     0.10100
C716        C  0.57882892  0.22699970  0.61538286     0.03300
C717        C  0.55991868  0.22633260  0.59100307    -0.13200
C718        C  0.56080560  0.24536468  0.56409331    -0.08900
C719        C  0.58175566  0.26447458  0.56089327     0.06700
C720        C  0.60051843  0.26519253  0.58524803    -0.13900
S721        S  0.57598838  0.20398061  0.65094840    -0.30900
H722        H  0.54386866  0.21169693  0.59341962     0.11000
S723        S  0.58611447  0.28776169  0.52593636    -0.28000
H724        H  0.61630386  0.28025731  0.58296543     0.08200
H725        H  0.63559496  0.30206482  0.73604772     0.26600
H726        H  0.55320426  0.19011511  0.64161856     0.21400
H727        H  0.57678103  0.26717069  0.50353659     0.26800
H728        H  0.63219273  0.20526091  0.59368399     0.15600
C729        C  0.70386225  0.78655079  0.24841038     0.86200
C730        C  0.68619822  0.78632711  0.21854096    -0.54100
C731        C  0.67091993  0.76236218  0.21667307     0.09100
C732        C  0.67492832  0.74010430  0.24458173     0.20100
C733        C  0.68577292  0.78275442  0.27755861    -0.54800
C734        C  0.67015250  0.75887041  0.27553898     0.09200
C735        C  0.71921842  0.75633346  0.24735723    -0.54300
C736        C  0.70422782  0.73211349  0.24436396     0.09800
H737        H  0.68574961  0.80383700  0.20039743     0.14300
H738        H  0.66282004  0.72034941  0.24262383     0.00000
H739        H  0.68519900  0.79795452  0.29801536     0.14600
H740        H  0.73995661  0.75349532  0.25061001     0.14400
C741        C  0.80244801  0.53234619  0.25343412     0.86200
C742        C  0.82185068  0.53060419  0.28165800    -0.54100
C743        C  0.83645528  0.00468451  0.28313840     0.09100
C744        C  0.83098816  0.98274580  0.25551055     0.20100
C745        C  0.82022669  0.52713573  0.22363325    -0.54800
C746        C  0.83462856  0.00090711  0.22441575     0.09200
C747        C  0.78689925  0.00389755  0.25597672    -0.54300
C748        C  0.80165789  0.97798944  0.25681927     0.09800
H749        H  0.82469569  0.54857745  0.29866303     0.14300
H750        H  0.84301990  0.96171209  0.25631893     0.00000
H751        H  0.82228565  0.54335275  0.20447556     0.14600
H752        H  0.76583020  0.00431407  0.25567106     0.14400
C753        C  0.30300851  0.69775444  0.24975404     0.86200
C754        C  0.31908260  0.70144689  0.21889618    -0.54100
C755        C  0.33182958  0.72737690  0.21726914     0.09100
C756        C  0.32801786  0.74745829  0.24744552     0.20100
C757        C  0.32312479  0.70134923  0.27715741    -0.54800
C758        C  0.33612579  0.72730781  0.27619016     0.09200
C759        C  0.28552209  0.72622718  0.25224480    -0.54300
C760        C  0.29842811  0.75222141  0.25150618     0.09800
H761        H  0.32085747  0.68447869  0.20018350     0.14300
H762        H  0.33836599  0.76859734  0.24637174     0.00000
H763        H  0.32743509  0.68537135  0.29600802     0.14600
H764        H  0.26458503  0.72575061  0.25456682     0.14400
C765        C  0.20016549  0.50701323  0.25323810     0.86200
C766        C  0.18440873  0.50201971  0.22228439    -0.54100
C767        C  0.17106369  0.97685478  0.22201546     0.09100
C768        C  0.17421580  0.95868008  0.25324377     0.20100
C769        C  0.18011410  0.50468522  0.28089675    -0.54800
C770        C  0.16610215  0.98050875  0.28022244     0.09200
C771        C  0.21699171  0.97925602  0.25771723    -0.54300
C772        C  0.20361331  0.95355632  0.25745666     0.09800
H773        H  0.18309906  0.51807159  0.20263939     0.14300
H774        H  0.16328634  0.93786353  0.25332028     0.00000
H775        H  0.17695084  0.52059635  0.30027018     0.14600
H776        H  0.23792483  0.97923720  0.26030075     0.14400
O777        O  0.03001812  0.98972259  0.03549178    -0.74700
O778        O  0.97603200  0.99540684  0.47284783    -0.74800
O779        O  0.97781286  0.99481760  0.03817087    -0.74800
O780        O  0.02842970  0.99016684  0.47043905    -0.74900
O781        O  0.02693767  0.94064298  0.47043205    -0.74800
O782        O  0.97554180  0.94535992  0.03754017    -0.74800
O783        O  0.97439879  0.94586352  0.47194492    -0.74700
O784        O  0.02794031  0.94033644  0.03575258    -0.74800
Ni785      Ni  0.00293638  0.99425538  0.00413198     1.25400
Ni786      Ni  0.00098256  0.94124971  0.00376197     1.25400
C787        C  0.03794910  0.96415953  0.04615709     0.87500
C788        C  0.96620482  0.97161774  0.46209541     0.87400
C789        C  0.96872219  0.97084921  0.04947744     0.87400
C790        C  0.03608041  0.96466989  0.45928806     0.87600
O791        O  0.47717908  0.72036926  0.03264186    -0.74700
O792        O  0.52907389  0.71997744  0.46531131    -0.74800
O793        O  0.52977085  0.72033292  0.03092347    -0.74800
O794        O  0.47655597  0.72000299  0.46677857    -0.74900
O795        O  0.47429745  0.76965430  0.46683083    -0.74800
O796        O  0.52842025  0.77002127  0.02974141    -0.74800
O797        O  0.52667908  0.76950958  0.46419859    -0.74700
O798        O  0.47566632  0.77001019  0.03276535    -0.74800
Ni799      Ni  0.50294315  0.71835654  0.99909049     1.25400
Ni800      Ni  0.50081388  0.77150950  0.99856994     1.25400
C801        C  0.46792499  0.74524978  0.04383546     0.87500
C802        C  0.53616222  0.74464425  0.45327340     0.87400
C803        C  0.53832665  0.74525795  0.04032356     0.87400
C804        C  0.46648214  0.74471633  0.45632512     0.87600
C805        C  0.10868605  0.48932878  0.33613502    -0.11700
C806        C  0.11234068  0.96688027  0.35725884     0.14900
C807        C  0.13316657  0.94612116  0.35166831     0.01800
C808        C  0.14955775  0.95005934  0.32510322    -0.16000
C809        C  0.14592513  0.97468685  0.30450126    -0.10900
C810        C  0.12538565  0.49398773  0.31024640     0.08500
C811        C  0.09444473  0.96458585  0.38499879     0.09500
S812        S  0.14042434  0.91495135  0.37809639    -0.25200
H813        H  0.16599058  0.93462655  0.32139601     0.19800
S814        S  0.11887512  0.52664495  0.28565958    -0.30900
H815        H  0.09303716  0.50557355  0.34099858     0.10100
C816        C  0.09417456  0.98581757  0.41010838     0.03300
C817        C  0.07505263  0.98502693  0.43409719    -0.13200
C818        C  0.05611396  0.96340826  0.43362227    -0.08900
C819        C  0.05684512  0.94171326  0.40870293     0.06700
C820        C  0.07613242  0.94239383  0.38489970    -0.13900
S821        S  0.11832162  0.01383334  0.41169428    -0.30900
H822        H  0.07482676  0.00139730  0.45335435     0.11000
S823        S  0.03282021  0.91396352  0.40445557    -0.28000
H824        H  0.07623048  0.92626807  0.36537188     0.08200
H825        H  0.12882107  0.51432372  0.25672891     0.26600
H826        H  0.11009338  0.02708346  0.44099743     0.21400
H827        H  0.01172310  0.93369836  0.41166277     0.26800
H828        H  0.13097709  0.92858557  0.40661526     0.15600
C829        C  0.09336129  0.93761580  0.10198324    -0.11700
C830        C  0.09651211  0.96332564  0.12053643     0.14900
C831        C  0.08092381  0.98914236  0.11415358     0.01800
C832        C  0.06204163  0.98847668  0.09004887    -0.16000
C833        C  0.05849930  0.96274631  0.07137950    -0.10900
C834        C  0.07457790  0.93694644  0.07740817     0.08500
C835        C  0.11598387  0.96268329  0.14670823     0.09500
S836        S  0.08152167  0.52334941  0.13819871    -0.25200
H837        H  0.04996576  0.00842237  0.08592048     0.19800
S838        S  0.07239142  0.90342748  0.05345105    -0.30900
H839        H  0.10572637  0.91807683  0.10686803     0.10100
C840        C  0.10856085  0.96095317  0.17943105     0.03300
C841        C  0.12727702  0.96403648  0.20363846    -0.13200
C842        C  0.15319607  0.96894280  0.19567475    -0.08900
C843        C  0.16086203  0.96844700  0.16284182     0.06700
C844        C  0.14213907  0.96559676  0.13870831    -0.13900
S845        S  0.07462646  0.45645507  0.19209766    -0.30900
H846        H  0.12152601  0.46434145  0.22981513     0.11000
S847        S  0.19414916  0.97097833  0.15024065    -0.28000
H848        H  0.14788178  0.96628070  0.11349006     0.08200
H849        H  0.08934752  0.88519235  0.07219110     0.26600
H850        H  0.07858723  0.45684712  0.22577184     0.21400
H851        H  0.20500275  0.95752321  0.17810127     0.26800
H852        H  0.10842739  0.52082308  0.14345832     0.15600
C853        C  0.24669327  0.88657837  0.28242402    -0.11700
C854        C  0.24229112  0.86673945  0.25694066     0.14900
C855        C  0.22383990  0.87489758  0.23292861     0.01800
C856        C  0.21134261  0.90316454  0.23400440    -0.16000
C857        C  0.21634262  0.92337045  0.25894224    -0.10900
C858        C  0.23367560  0.91455013  0.28394256     0.08500
C859        C  0.25743900  0.83792690  0.25600613     0.09500
S860        S  0.21551007  0.85043711  0.20021381    -0.25200
H861        H  0.19777959  0.90957867  0.21497743     0.19800
S862        S  0.23938770  0.93747307  0.31886289    -0.30900
H863        H  0.26036954  0.88016726  0.30131914     0.10100
C864        C  0.27759474  0.83253868  0.23345397     0.03300
C865        C  0.29131153  0.80487280  0.23344322    -0.13200
C866        C  0.28505610  0.78215363  0.25504741    -0.08900
C867        C  0.26579685  0.78835820  0.27886549     0.06700
C868        C  0.25205026  0.81591991  0.27878405    -0.13900
S869        S  0.28610591  0.86102786  0.20496698    -0.30900
H870        H  0.30682876  0.80085767  0.21630994     0.11000
S871        S  0.25893370  0.76301326  0.31130458    -0.28000
H872        H  0.23714968  0.82039131  0.29684278     0.08200
H873        H  0.21439248  0.95114832  0.31980994     0.26600
H874        H  0.30509098  0.84384703  0.18807386     0.21400
H875        H  0.28456524  0.75140805  0.31423421     0.26800
H876        H  0.22075526  0.82356625  0.21682161     0.15600
C877        C  0.25554044  0.63718622  0.22424657    -0.11700
C878        C  0.25908039  0.61593707  0.24874896     0.14900
C879        C  0.27685310  0.62105491  0.27372823     0.01800
C880        C  0.29046048  0.64735155  0.27402142    -0.16000
C881        C  0.28739049  0.66909302  0.24938610    -0.10900
C882        C  0.26927126  0.66362222  0.22422923     0.08500
C883        C  0.24303821  0.58930570  0.24870989     0.09500
S884        S  0.28274676  0.59509488  0.30654157    -0.25200
H885        H  0.30324478  0.65005036  0.29407490     0.19800
S886        S  0.26284151  0.69024508  0.19202715    -0.30900
H887        H  0.24156124  0.63316741  0.20538785     0.10100
C888        C  0.22161167  0.58739222  0.26941124     0.03300
C889        C  0.20793643  0.56107636  0.27037476    -0.13200
C890        C  0.21527398  0.53593748  0.25127345    -0.08900
C891        C  0.23600002  0.53899541  0.22886130     0.06700
C892        C  0.24970132  0.56542263  0.22819142    -0.13900
S893        S  0.21123356  0.61894103  0.29410200    -0.30900
H894        H  0.19103627  0.56114142  0.28549862     0.11000
S895        S  0.24496600  0.50994994  0.20008994    -0.28000
H896        H  0.26583931  0.56756704  0.21172440     0.08200
H897        H  0.24593283  0.67302230  0.17386108     0.26600
H898        H  0.19220653  0.60448598  0.31189684     0.21400
H899        H  0.26572455  0.02364810  0.18540049     0.26800
H900        H  0.27791389  0.56910195  0.28897385     0.15600
C901        C  0.39697858  0.74846227  0.32258373    -0.11700
C902        C  0.38998799  0.74095984  0.35423155     0.14900
C903        C  0.36475134  0.73151671  0.36034599     0.01800
C904        C  0.34731127  0.72918848  0.33468556    -0.16000
C905        C  0.35459042  0.73502979  0.30252788    -0.10900
C906        C  0.37969329  0.74544198  0.29661367     0.08500
C907        C  0.40972836  0.74211644  0.38014357     0.09500
S908        S  0.35385044  0.72113787  0.40011396    -0.25200
H909        H  0.32803906  0.72169482  0.33979362     0.19800
S910        S  0.39076595  0.75345874  0.25631009    -0.30900
H911        H  0.41634226  0.75597445  0.31823929     0.10100
C912        C  0.42963500  0.71982689  0.38270920     0.03300
C913        C  0.44763567  0.72111495  0.40800873    -0.13200
C914        C  0.44611293  0.74414708  0.43107279    -0.08900
C915        C  0.42566683  0.76608006  0.42881395     0.06700
C916        C  0.40797465  0.76504658  0.40316358    -0.13900
S917        S  0.43175592  0.68933128  0.35414507    -0.30900
H918        H  0.46319385  0.70425843  0.40959982     0.11000
S919        S  0.42016556  0.79493393  0.45867373    -0.28000
H920        H  0.39233751  0.78183467  0.40152590     0.08200
H921        H  0.41697776  0.75719892  0.26402099     0.26600
H922        H  0.45260206  0.67348018  0.36898943     0.21400
H923        H  0.42649842  0.77647795  0.48527251     0.26800
H924        H  0.37788640  0.70933706  0.41116398     0.15600
C925        C  0.42398134  0.76603109  0.11570134    -0.11700
C926        C  0.40696646  0.74247433  0.11526452     0.14900
C927        C  0.40977333  0.72044532  0.09101142     0.01800
C928        C  0.42999410  0.72178731  0.06856780    -0.16000
C929        C  0.44742181  0.74504136  0.06912268    -0.10900
C930        C  0.44425809  0.76744674  0.09317145     0.08500
C931        C  0.38812272  0.73970801  0.14208102     0.09500
S932        S  0.38847144  0.68970542  0.08781653    -0.25200
H933        H  0.43187197  0.70464508  0.05014756     0.19800
S934        S  0.46629009  0.79726765  0.09788999    -0.30900
H935        H  0.42208218  0.78277616  0.13454957     0.10100
C936        C  0.39320886  0.71969774  0.16775349     0.03300
C937        C  0.37441472  0.71625392  0.19180489    -0.13200
C938        C  0.35065610  0.73257496  0.19097359    -0.08900
C939        C  0.34524730  0.75194763  0.16467064     0.06700
C940        C  0.36429617  0.75588898  0.14097097    -0.13900
S941        S  0.42373336  0.69862004  0.16994649    -0.30900
H942        H  0.37823599  0.70088827  0.21157548     0.11000
S943        S  0.31406316  0.77061514  0.15849211    -0.28000
H944        H  0.36012648  0.77068385  0.12077416     0.08200
H945        H  0.48874683  0.77924407  0.09192284     0.26600
H946        H  0.41760084  0.68138880  0.19709475     0.21400
H947        H  0.29936934  0.75049886  0.17603037     0.26800
H948        H  0.36629115  0.70492323  0.10020439     0.15600
C949        C  0.90756285  0.99935316  0.41363793    -0.11700
C950        C  0.90872139  0.97987032  0.38711684     0.14900
C951        C  0.92806710  0.95673115  0.38616410     0.01800
C952        C  0.94622505  0.95410421  0.41128919    -0.16000
C953        C  0.94539082  0.97396937  0.43758332    -0.10900
C954        C  0.92537243  0.99640634  0.43902859     0.08500
C955        C  0.89017742  0.98527295  0.36027690     0.09500
S956        S  0.93083039  0.93020783  0.35341654    -0.25200
H957        H  0.96139099  0.93674541  0.40999895     0.19800
S958        S  0.92407219  0.52545906  0.46915830    -0.30900
H959        H  0.89500649  0.51974691  0.41158199     0.10100
C960        C  0.86363300  0.97983822  0.36381292     0.03300
C961        C  0.84655482  0.98679165  0.33829974    -0.13200
C962        C  0.85552401  0.99864245  0.30919411    -0.08900
C963        C  0.88209261  0.50410234  0.30551437     0.06700
C964        C  0.89916420  0.49669586  0.33082132    -0.13900
S965        S  0.85162243  0.96358095  0.40056763    -0.30900
H966        H  0.82606820  0.98303429  0.34095691     0.11000
S967        S  0.89546440  0.52210245  0.27064981    -0.28000
H968        H  0.91959368  0.50093349  0.32822097     0.08200
H969        H  0.92991661  0.50502173  0.49417434     0.26600
H970        H  0.82570002  0.96171957  0.39049782     0.21400
H971        H  0.87269326  0.53776569  0.26097552     0.26800
H972        H  0.90430748  0.93074221  0.34558080     0.15600
C973        C  0.93264899  0.49502678  0.12561136    -0.11700
C974        C  0.91218599  0.97627881  0.12597495     0.14900
C975        C  0.91115288  0.95395259  0.10200431     0.01800
C976        C  0.92984708  0.95259471  0.07743466    -0.16000
C977        C  0.95005829  0.97261227  0.07665050    -0.10900
C978        C  0.95174225  0.99401496  0.10166029     0.08500
C979        C  0.89192884  0.98026874  0.15113931     0.09500
S980        S  0.88658340  0.92653008  0.10159399    -0.25200
H981        H  0.92851186  0.93583828  0.05868545     0.19800
S982        S  0.97895128  0.51685386  0.10607039    -0.30900
H983        H  0.93394402  0.51158496  0.14458224     0.10100
C984        C  0.89728585  0.97437825  0.18397755     0.03300
C985        C  0.87782716  0.97990383  0.20714074    -0.13200
C986        C  0.85322854  0.99177726  0.19832496    -0.08900
C987        C  0.84745777  0.99565881  0.16504865     0.06700
C988        C  0.86697205  0.99044780  0.14197756    -0.13900
S989        S  0.92884015  0.95963066  0.19637367    -0.30900
H990        H  0.88206133  0.97555305  0.23231649     0.11000
S991        S  0.81549150  0.50612699  0.14979918    -0.28000
H992        H  0.86273056  0.49452222  0.11633204     0.08200
H993        H  0.99761985  0.49496133  0.09627946     0.26600
H994        H  0.92352686  0.95820539  0.22971668     0.21400
H995        H  0.80214877  0.49129855  0.17429413     0.26800
H996        H  0.88350411  0.92515978  0.13536172     0.15600
C997        C  0.75917502  0.60166816  0.27691697    -0.11700
C998        C  0.75204204  0.61298599  0.24647031     0.14900
C999        C  0.75950725  0.59656623  0.21863082     0.01800
C1000       C  0.77571390  0.57099326  0.22170396    -0.16000
C1001       C  0.78442384  0.56042313  0.25215027    -0.10900
C1002       C  0.77369694  0.57481894  0.28016257     0.08500
C1003       C  0.73829062  0.64271063  0.24444281     0.09500
S1004       S  0.74845973  0.60655320  0.17850331    -0.25200
H1005       H  0.78078673  0.55882357  0.19985978     0.19800
S1006       S  0.77594846  0.56004637  0.32073248    -0.30900
H1007       H  0.75292232  0.61362462  0.29852424     0.10100
C1008       C  0.71465666  0.64930176  0.26072349     0.03300
C1009       C  0.70378253  0.67850350  0.25997912    -0.13200
C1010       C  0.71543968  0.70105949  0.24227217    -0.08900
C1011       C  0.73802714  0.69366043  0.22396095     0.06700
C1012       C  0.74964760  0.66511163  0.22631783    -0.13900
S1013       S  0.69782660  0.62047900  0.28159192    -0.30900
H1014       H  0.68633243  0.68385807  0.27366718     0.11000
S1015       S  0.75229336  0.71880869  0.19563618    -0.28000
H1016       H  0.76755851  0.66013090  0.21334373     0.08200
H1017       H  0.77342486  0.53016526  0.31173805     0.26600
H1018       H  0.67710062  0.63877053  0.29327554     0.21400
H1019       H  0.72858793  0.73286170  0.18630956     0.26800
H1020       H  0.72464186  0.61994848  0.18840289     0.15600
C1021       C  0.72222543  0.86906059  0.25409988    -0.11700
C1022       C  0.74878526  0.86725287  0.24722380     0.14900
C1023       C  0.76084899  0.83927922  0.24051910     0.01800
C1024       C  0.74637883  0.81366857  0.24186947    -0.16000
C1025       C  0.71958813  0.81494764  0.24927952    -0.10900
C1026       C  0.70734679  0.84361890  0.25424291     0.10500
C1027       C  0.76343847  0.89492177  0.24806131     0.09500
S1028       S  0.79451672  0.83485076  0.22892793    -0.25200
H1029       H  0.75639040  0.79306052  0.23526028     0.19800
S1030       S  0.67266962  0.84881641  0.25987732    -0.30900
H1031       H  0.71311433  0.89072503  0.25910534     0.10100
C1032       C  0.75804846  0.91842752  0.22622115     0.03300
C1033       C  0.77112789  0.94497879  0.22943967    -0.13200
C1034       C  0.78979472  0.94849504  0.25377484    -0.08900
C1035       C  0.79604376  0.92435730  0.27463924     0.06700
C1036       C  0.78257353  0.89797561  0.27176095    -0.13900
S1037       S  0.73487394  0.91447891  0.19387842    -0.30900
H1038       H  0.76679220  0.96319892  0.21290656     0.11000
S1039       S  0.81997115  0.92719437  0.30612229    -0.28000
H1040       H  0.78655232  0.87973636  0.28839131     0.08200
H1041       H  0.67130689  0.88014686  0.25883104     0.26600
H1042       H  0.73942762  0.94161811  0.17830707     0.21400
H1043       H  0.81987786  0.89738811  0.31654295     0.26800
H1044       H  0.79574302  0.86237585  0.21290950     0.15600
C1045       C  0.58223923  0.72117855  0.38422184    -0.11700
C1046       C  0.59446683  0.74790625  0.37814552     0.14900
C1047       C  0.58663173  0.77368929  0.39577658     0.01800
C1048       C  0.56803671  0.77171111  0.42026430    -0.16000
C1049       C  0.55577926  0.74488959  0.42672955    -0.10900
C1050       C  0.56268126  0.71950345  0.40759654     0.08500
C1051       C  0.61454286  0.74836038  0.35242229     0.09500
S1052       S  0.59900823  0.80997556  0.38771933    -0.25200
H1053       H  0.56287786  0.79159086  0.43407832     0.19800
S1054       S  0.54659158  0.68473232  0.41022921    -0.30900
H1055       H  0.58762181  0.70155129  0.37007661     0.10100
C1056       C  0.64067186  0.75364679  0.35936475     0.03300
C1057       C  0.65845550  0.75573305  0.33386682    -0.13200
C1058       C  0.65081134  0.75263814  0.30136984    -0.08900
C1059       C  0.62473026  0.74598493  0.29464537     0.06700
C1060       C  0.60702412  0.74386664  0.32027491    -0.13900
S1061       S  0.65149407  0.75736759  0.40069098    -0.30900
H1062       H  0.67847942  0.76003327  0.33925421     0.11000
S1063       S  0.61287294  0.74220155  0.25381847    -0.28000
H1064       H  0.58690970  0.73965769  0.31529818     0.08200
H1065       H  0.52152953  0.69836360  0.40968318     0.26600
H1066       H  0.67691202  0.76542224  0.39348190     0.21400
H1067       H  0.58748628  0.73445230  0.26159561     0.26800
H1068       H  0.60348846  0.80540169  0.35449907     0.15600
C1069       C  0.61582365  0.77606594  0.15688776    -0.11700
C1070       C  0.61762467  0.74994883  0.13833924     0.14900
C1071       C  0.63709136  0.72789603  0.14560837     0.01800
C1072       C  0.65382181  0.73222756  0.17175014    -0.16000
C1073       C  0.65203324  0.75845875  0.19022501    -0.10900
C1074       C  0.63256135  0.78047207  0.18282082     0.08500
C1075       C  0.59835794  0.74657504  0.11221828     0.09500
S1076       S  0.64188681  0.69409543  0.12234452    -0.25200
H1077       H  0.66878070  0.71533631  0.17723966     0.19800
S1078       S  0.62703081  0.81398975  0.20631313    -0.30900
H1079       H  0.60077124  0.79289175  0.15155629     0.10100
C1080       C  0.57791810  0.72685349  0.11511725     0.03300
C1081       C  0.55898940  0.72621862  0.09076755    -0.13200
C1082       C  0.55982622  0.74531002  0.06390666    -0.08900
C1083       C  0.58074301  0.76447294  0.06073016     0.06700
C1084       C  0.59953695  0.76515061  0.08505762    -0.13900
S1085       S  0.57512419  0.70375117  0.15062578    -0.30900
H1086       H  0.54296371  0.71154603  0.09316755     0.11000
S1087       S  0.58502199  0.78787331  0.02584413    -0.28000
H1088       H  0.61530153  0.78024696  0.08279954     0.08200
H1089       H  0.63443951  0.80138334  0.23617608     0.26600
H1090       H  0.55220555  0.69009267  0.14143353     0.21400
H1091       H  0.57567661  0.76734027  0.00338807     0.26800
H1092       H  0.63119788  0.70518380  0.09327870     0.15600
C1093       C  0.70363846  0.78653660  0.74896178     0.86200
C1094       C  0.68603113  0.78628188  0.71904388    -0.54100
C1095       C  0.67070892  0.76235775  0.71721796     0.09100
C1096       C  0.67460835  0.74017713  0.74520424     0.20100
C1097       C  0.68548104  0.78288685  0.77806719    -0.54800
C1098       C  0.66980387  0.75904811  0.77607759     0.09200
C1099       C  0.71892802  0.75627676  0.74806382    -0.54300
C1100       C  0.70388401  0.73210531  0.74509296     0.09800
H1101       H  0.68565237  0.80373614  0.70083868     0.14300
H1102       H  0.66247655  0.72044370  0.74326173     0.00000
H1103       H  0.68489789  0.79815911  0.79846004     0.14600
H1104       H  0.73966076  0.75338028  0.75136964     0.14400
C1105       C  0.80248770  0.53285567  0.75344169     0.86200
C1106       C  0.82188267  0.53117632  0.78168083    -0.54100
C1107       C  0.83628601  0.00456857  0.78292507     0.09100
C1108       C  0.83086668  0.98264893  0.75526937     0.20100
C1109       C  0.82032692  0.52836561  0.72358963    -0.54800
C1110       C  0.83447735  0.00085282  0.72419982     0.09200
C1111       C  0.78674249  0.00369757  0.75576090    -0.54300
C1112       C  0.80155046  0.97782128  0.75657320     0.09800
H1113       H  0.82443726  0.54899307  0.79896487     0.14300
H1114       H  0.84293980  0.96164562  0.75604823     0.00000
H1115       H  0.82207229  0.54478974  0.70457126     0.14600
H1116       H  0.76567472  0.00406764  0.75547469     0.14400
C1117       C  0.30353703  0.69728295  0.74899282     0.86200
C1118       C  0.31962935  0.70116887  0.71818127    -0.54100
C1119       C  0.33223794  0.72720128  0.71666501     0.09100
C1120       C  0.32827356  0.74719329  0.74687518     0.20100
C1121       C  0.32356524  0.70099449  0.77646429    -0.54800
C1122       C  0.33641848  0.72705132  0.77560673     0.09200
C1123       C  0.28589145  0.72565304  0.75152253    -0.54300
C1124       C  0.29866717  0.75174823  0.75084646     0.09800
H1125       H  0.32151372  0.68426001  0.69941668     0.14300
H1126       H  0.33850401  0.76841500  0.74587806     0.00000
H1127       H  0.32785513  0.68506368  0.79538858     0.14600
H1128       H  0.26496224  0.72504000  0.75384107     0.14400
C1129       C  0.19975781  0.50706611  0.75305220     0.86200
C1130       C  0.18420239  0.50178352  0.72197133    -0.54100
C1131       C  0.17131561  0.97651773  0.72227701     0.09100
C1132       C  0.17441308  0.95833299  0.75350378     0.20100
C1133       C  0.17942160  0.50507778  0.78044544    -0.54800
C1134       C  0.16636583  0.98021085  0.78047111     0.09200
C1135       C  0.21726787  0.97871911  0.75795459    -0.54300
C1136       C  0.20380509  0.95307931  0.75769944     0.09800
H1137       H  0.18311097  0.51762482  0.70212391     0.14300
H1138       H  0.16341039  0.93756975  0.75358089     0.00000
H1139       H  0.17593735  0.52120791  0.79948090     0.14600
H1140       H  0.23820791  0.97861140  0.76049978     0.14400
O1141       O  0.03030511  0.98977182  0.53568813    -0.74700
O1142       O  0.97566713  0.99531998  0.97275552    -0.74800
O1143       O  0.97809155  0.99498709  0.53828038    -0.74800
O1144       O  0.02806180  0.99021920  0.97024803    -0.74900
O1145       O  0.02668239  0.94068726  0.97017327    -0.74800
O1146       O  0.97574400  0.94553884  0.53771169    -0.74800
O1147       O  0.97413644  0.94576753  0.97177410    -0.74700
O1148       O  0.02813724  0.94039702  0.53600781    -0.74800
Ni1149     Ni  0.00326421  0.99431995  0.50427750     1.25400
Ni1150     Ni  0.00120930  0.94132474  0.50398083     1.25400
C1151       C  0.03818379  0.96420466  0.54639287     0.87500
C1152       C  0.96587990  0.97151620  0.96198230     0.87400
C1153       C  0.96894038  0.97105273  0.54959757     0.87400
C1154       C  0.03576304  0.96475888  0.95905300     0.87600
O1155       O  0.47753465  0.72062042  0.53228874    -0.74700
O1156       O  0.52854286  0.72002734  0.96546388    -0.74800
O1157       O  0.53012899  0.72027655  0.53079437    -0.74800
O1158       O  0.47605836  0.71972369  0.96711457    -0.74900
O1159       O  0.47353778  0.76937759  0.96722846    -0.74800
O1160       O  0.52895514  0.76996432  0.52964521    -0.74800
O1161       O  0.52589217  0.76955208  0.96431527    -0.74700
O1162       O  0.47619770  0.77026067  0.53238247    -0.74800
Ni1163     Ni  0.50337413  0.71846265  0.49884289     1.25400
Ni1164     Ni  0.50147755  0.77161575  0.49831886     1.25400
C1165       C  0.46833766  0.74554493  0.54343008     0.87500
C1166       C  0.53547361  0.74473901  0.95337827     0.87400
C1167       C  0.53872999  0.74515520  0.54026996     0.87400
C1168       C  0.46585685  0.74438445  0.95670219     0.87600
C1169       C  0.10772916  0.48968349  0.83525856    -0.11700
C1170       C  0.11227275  0.96708172  0.85727147     0.14900
C1171       C  0.13298836  0.94615124  0.85177264     0.01800
C1172       C  0.14948502  0.94993332  0.82527947    -0.16000
C1173       C  0.14607372  0.97457616  0.80466048    -0.10900
C1174       C  0.12419628  0.49367723  0.80895726     0.08500
C1175       C  0.09423296  0.96487617  0.88488502     0.09500
S1176       S  0.13998512  0.91495468  0.87825346    -0.25200
H1177       H  0.16583130  0.93436479  0.82164946     0.19800
S1178       S  0.11655698  0.52460462  0.78228439    -0.30900
H1179       H  0.09139662  0.50526515  0.83899297     0.10100
C1180       C  0.09376968  0.98622597  0.90988566     0.03300
C1181       C  0.07460550  0.98537667  0.93381637    -0.13200
C1182       C  0.05580012  0.96360210  0.93338604    -0.08900
C1183       C  0.05668739  0.94184002  0.90853769     0.06700
C1184       C  0.07602273  0.94257069  0.88480205    -0.13900
S1185       S  0.11776060  0.01442205  0.91146386    -0.30900
H1186       H  0.07426460  0.00180202  0.95302274     0.11000
S1187       S  0.03282267  0.91390641  0.90431056    -0.28000
H1188       H  0.07625501  0.92636256  0.86534696     0.08200
H1189       H  0.12745944  0.51148778  0.75429392     0.26600
H1190       H  0.10905809  0.02811912  0.94032676     0.21400
H1191       H  0.01161485  0.93352027  0.91140066     0.26800
H1192       H  0.13065850  0.92876508  0.90673643     0.15600
C1193       C  0.09341766  0.93750285  0.60240147    -0.11700
C1194       C  0.09669373  0.96325493  0.62083876     0.14900
C1195       C  0.08124580  0.98915049  0.61433042     0.01800
C1196       C  0.06238552  0.98853638  0.59019014    -0.16000
C1197       C  0.05872145  0.96276349  0.57163064    -0.10900
C1198       C  0.07464010  0.93687313  0.57782363     0.08500
C1199       C  0.11616405  0.96257366  0.64700494     0.09500
S1200       S  0.08024362  0.51989588  0.64120428    -0.25200
H1201       H  0.05042461  0.00854118  0.58595827     0.19800
S1202       S  0.07232342  0.90327210  0.55404894    -0.30900
H1203       H  0.10569412  0.91791241  0.60733834     0.10100
C1204       C  0.10874038  0.96088143  0.67972959     0.03300
C1205       C  0.12747282  0.96390444  0.70392614    -0.13200
C1206       C  0.15340961  0.96869249  0.69594925    -0.08900
C1207       C  0.16106682  0.96816297  0.66311322     0.06700
C1208       C  0.14232717  0.96538227  0.63899272    -0.13900
S1209       S  0.07608361  0.45023454  0.68983662    -0.30900
H1210       H  0.12203205  0.46058715  0.72845202     0.11000
S1211       S  0.19436036  0.97057025  0.65049188    -0.28000
H1212       H  0.14806705  0.96603378  0.61376557     0.08200
H1213       H  0.08781601  0.88459725  0.57415013     0.26600
H1214       H  0.07992440  0.44927094  0.72352524     0.21400
H1215       H  0.20518906  0.95707357  0.67834359     0.26800
H1216       H  0.10713301  0.51846037  0.64675950     0.15600
C1217       C  0.24687167  0.88597637  0.78233501    -0.11700
C1218       C  0.24242989  0.86622233  0.75677931     0.14900
C1219       C  0.22391739  0.87445918  0.73286426     0.01800
C1220       C  0.21141664  0.90272354  0.73408617    -0.16000
C1221       C  0.21646826  0.92284903  0.75908407    -0.10900
C1222       C  0.23384389  0.91394000  0.78400300     0.08500
C1223       C  0.25758231  0.83740579  0.75568359     0.09500
S1224       S  0.21550056  0.85010640  0.70009017    -0.25200
H1225       H  0.19782341  0.90920091  0.71512622     0.19800
S1226       S  0.23959294  0.93674260  0.81900618    -0.30900
H1227       H  0.26058209  0.87950854  0.80116178     0.10100
C1228       C  0.27758059  0.83201911  0.73291066     0.03300
C1229       C  0.29129636  0.80435165  0.73275345    -0.13200
C1230       C  0.28519139  0.78161994  0.75441886    -0.08900
C1231       C  0.26607075  0.78779460  0.77840852     0.06700
C1232       C  0.25233583  0.81536956  0.77849455    -0.13900
S1233       S  0.28591980  0.86051767  0.70434471    -0.30900
H1234       H  0.30671499  0.80035357  0.71548053     0.11000
S1235       S  0.25937518  0.76237877  0.81083905    -0.28000
H1236       H  0.23755100  0.81982319  0.79670279     0.08200
H1237       H  0.21459048  0.95039725  0.82004530     0.26600
H1238       H  0.30462777  0.84325394  0.68708296     0.21400
H1239       H  0.28502905  0.75080944  0.81358774     0.26800
H1240       H  0.22085117  0.82317534  0.71653951     0.15600
C1241       C  0.25611984  0.63657479  0.72361407    -0.11700
C1242       C  0.25981016  0.61525984  0.74802812     0.14900
C1243       C  0.27791119  0.62020975  0.77268221     0.01800
C1244       C  0.29150466  0.64651791  0.77291313    -0.16000
C1245       C  0.28811355  0.66845701  0.74852935    -0.10900
C1246       C  0.26989058  0.66299019  0.72348953     0.08500
C1247       C  0.24355058  0.58878388  0.74828996     0.09500
S1248       S  0.28425576  0.59399326  0.80514105    -0.25200
H1249       H  0.30459442  0.64903242  0.79272269     0.19800
S1250       S  0.26337175  0.68959550  0.69130072    -0.30900
H1251       H  0.24196186  0.63265121  0.70493541     0.10100
C1252       C  0.22246631  0.58697634  0.76955610     0.03300
C1253       C  0.20846723  0.56087690  0.77061209    -0.13200
C1254       C  0.21512531  0.53584255  0.75099486    -0.08900
C1255       C  0.23569588  0.53870229  0.72830509     0.06700
C1256       C  0.24965446  0.56494871  0.72747743    -0.13900
S1257       S  0.21298045  0.61837265  0.79497544    -0.30900
H1258       H  0.19200197  0.56101327  0.78635403     0.11000
S1259       S  0.24432000  0.50949385  0.69958776    -0.28000
H1260       H  0.26561171  0.56695336  0.71072329     0.08200
H1261       H  0.24691487  0.67205814  0.67283486     0.26600
H1262       H  0.19335616  0.60446148  0.81226543     0.21400
H1263       H  0.26614632  0.02287021  0.68565098     0.26800
H1264       H  0.27918190  0.56815831  0.78741819     0.15600
C1265       C  0.39690838  0.74849006  0.82255304    -0.11700
C1266       C  0.38981541  0.74076630  0.85410551     0.14900
C1267       C  0.36458336  0.73119846  0.85998221     0.01800
C1268       C  0.34727257  0.72891484  0.83418697    -0.16000
C1269       C  0.35468363  0.73490067  0.80211187    -0.10900
C1270       C  0.37975026  0.74551204  0.79643820     0.08500
C1271       C  0.40942866  0.74185627  0.88018012     0.09500
S1272       S  0.35354494  0.72053779  0.89959596    -0.25200
H1273       H  0.32801248  0.72129956  0.83911645     0.19800
S1274       S  0.39093099  0.75383508  0.75625668    -0.30900
H1275       H  0.41625660  0.75612711  0.81839463     0.10100
C1276       C  0.42959138  0.71984223  0.88250532     0.03300
C1277       C  0.44745912  0.72105414  0.90796068    -0.13200
C1278       C  0.44553538  0.74371805  0.93141920    -0.08900
C1279       C  0.42480256  0.76530064  0.92945537     0.06700
C1280       C  0.40725646  0.76438012  0.90364222    -0.13900
S1281       S  0.43222284  0.68978679  0.85343216    -0.30900
H1282       H  0.46324210  0.70445985  0.90935084     0.11000
S1283       S  0.41876874  0.79351343  0.95989582    -0.28000
H1284       H  0.39140742  0.78091727  0.90221657     0.08200
H1285       H  0.41702116  0.75806878  0.76421438     0.26600
H1286       H  0.45296457  0.67385766  0.86840627     0.21400
H1287       H  0.42558474  0.77481856  0.98613005     0.26800
H1288       H  0.37755239  0.70865848  0.91065747     0.15600
C1289       C  0.42436477  0.76642498  0.61523585    -0.11700
C1290       C  0.40727286  0.74294421  0.61471897     0.14900
C1291       C  0.41002447  0.72095691  0.59041800     0.01800
C1292       C  0.43025994  0.72226324  0.56799661    -0.16000
C1293       C  0.44777176  0.74542923  0.56863756    -0.10900
C1294       C  0.44466555  0.76779823  0.59273361     0.08500
C1295       C  0.38847357  0.74011789  0.64156733     0.09500
S1296       S  0.38867538  0.69026529  0.58719685    -0.25200
H1297       H  0.43210319  0.70514161  0.54954658     0.19800
S1298       S  0.46681688  0.79748488  0.59756761    -0.30900
H1299       H  0.42251756  0.78312485  0.63413986     0.10100
C1300       C  0.39374228  0.72027570  0.66733836     0.03300
C1301       C  0.37497776  0.71667226  0.69138884    -0.13200
C1302       C  0.35104813  0.73263186  0.69042309    -0.08900
C1303       C  0.34546619  0.75184312  0.66402776     0.06700
C1304       C  0.36449477  0.75597551  0.64034889    -0.13900
S1305       S  0.42444161  0.69956349  0.66961802    -0.30900
H1306       H  0.37893883  0.70143025  0.71122991     0.11000
S1307       S  0.31410951  0.77006125  0.65770379    -0.28000
H1308       H  0.36019288  0.77062884  0.62007406     0.08200
H1309       H  0.48921244  0.77935475  0.59161142     0.26600
H1310       H  0.41832463  0.68206000  0.69656283     0.21400
H1311       H  0.29960601  0.74988134  0.67540644     0.26800
H1312       H  0.36648653  0.70557727  0.59942680     0.15600
C1313       C  0.90713183  0.99912946  0.91366113    -0.11700
C1314       C  0.90837330  0.97974840  0.88705539     0.14900
C1315       C  0.92779586  0.95669937  0.88601167     0.01800
C1316       C  0.94595048  0.95406421  0.91113461    -0.16000
C1317       C  0.94504643  0.97384225  0.93750278    -0.10900
C1318       C  0.92495290  0.99618439  0.93903900     0.08500
C1319       C  0.88986832  0.98519472  0.86019337     0.09500
S1320       S  0.93068224  0.93032643  0.85313026    -0.25200
H1321       H  0.96118059  0.93678334  0.90977449     0.19800
S1322       S  0.92052259  0.52035162  0.97295546    -0.30900
H1323       H  0.89241889  0.51643195  0.91431399     0.10100
C1324       C  0.86334754  0.97959383  0.86359317     0.03300
C1325       C  0.84631032  0.98656664  0.83804823    -0.13200
C1326       C  0.85531390  0.99852711  0.80901374    -0.08900
C1327       C  0.88224456  0.50611648  0.80591121     0.06700
C1328       C  0.89928420  0.49851667  0.83119377    -0.13900
S1329       S  0.85131461  0.96309901  0.90020457    -0.30900
H1330       H  0.82583196  0.98273634  0.84062566     0.11000
S1331       S  0.89540765  0.52567453  0.77193277    -0.28000
H1332       H  0.91955949  0.50369263  0.82912814     0.08200
H1333       H  0.92814377  0.49889690  0.99625142     0.26600
H1334       H  0.82559462  0.96039917  0.88967362     0.21400
H1335       H  0.87222352  0.54003754  0.76160605     0.26800
H1336       H  0.90417905  0.93080878  0.84519870     0.15600
C1337       C  0.93255648  0.49915098  0.62378390    -0.11700
C1338       C  0.91222413  0.97651227  0.62590800     0.14900
C1339       C  0.91129141  0.95413585  0.60198413     0.01800
C1340       C  0.93003524  0.95278729  0.57747378    -0.16000
C1341       C  0.95020509  0.97286345  0.57670165    -0.10900
C1342       C  0.95178434  0.99432947  0.60166357     0.08500
C1343       C  0.89192644  0.98045548  0.65103160     0.09500
S1344       S  0.88679446  0.92662737  0.60156068    -0.25200
H1345       H  0.92877554  0.93598401  0.55876803     0.19800
S1346       S  0.97821881  0.52175086  0.60315971    -0.30900
H1347       H  0.93334298  0.51661303  0.64184790     0.10100
C1348       C  0.89725351  0.97457476  0.68387911     0.03300
C1349       C  0.87775241  0.98002861  0.70700220    -0.13200
C1350       C  0.85313468  0.99181124  0.69814006    -0.08900
C1351       C  0.84739750  0.99568130  0.66485506     0.06700
C1352       C  0.86695542  0.99054651  0.64182137    -0.13900
S1353       S  0.92882095  0.95991685  0.69633609    -0.30900
H1354       H  0.88196526  0.97568637  0.73218717     0.11000
S1355       S  0.81554338  0.50657473  0.64974488    -0.28000
H1356       H  0.86280793  0.49606824  0.61584809     0.08200
H1357       H  0.99751513  0.49991771  0.59520657     0.26600
H1358       H  0.92349107  0.95854895  0.72967840     0.21400
H1359       H  0.80277767  0.49149009  0.67454111     0.26800
H1360       H  0.88365623  0.92530079  0.63532191     0.15600
C1361       C  0.75861212  0.60152300  0.77741902    -0.11700
C1362       C  0.75135062  0.61286510  0.74702657     0.14900
C1363       C  0.75871712  0.59650417  0.71911859     0.01800
C1364       C  0.77507337  0.57105302  0.72204122    -0.16000
C1365       C  0.78405891  0.56058607  0.75240389    -0.10900
C1366       C  0.77331467  0.57478224  0.78051494     0.08500
C1367       C  0.73768235  0.64261966  0.74508272     0.09500
S1368       S  0.74742648  0.60648344  0.67909177    -0.25200
H1369       H  0.78013311  0.55894306  0.70015186     0.19800
S1370       S  0.77569317  0.55980989  0.82098545    -0.30900
H1371       H  0.75236441  0.61339013  0.79908278     0.10100
C1372       C  0.71406088  0.64925985  0.76135408     0.03300
C1373       C  0.70327553  0.67849920  0.76066069    -0.13200
C1374       C  0.71501289  0.70102902  0.74299808    -0.08900
C1375       C  0.73758004  0.69357345  0.72467703     0.06700
C1376       C  0.74911367  0.66498960  0.72699701    -0.13900
S1377       S  0.69715483  0.62045592  0.78214693    -0.30900
H1378       H  0.68583635  0.68390303  0.77435854     0.11000
S1379       S  0.75191821  0.71868732  0.69637437    -0.28000
H1380       H  0.76701218  0.65995065  0.71401088     0.08200
H1381       H  0.77360211  0.52992287  0.81174225     0.26600
H1382       H  0.67619912  0.63868524  0.79330824     0.21400
H1383       H  0.72824242  0.73279378  0.68702023     0.26800
H1384       H  0.72365859  0.61985634  0.68920731     0.15600
C1385       C  0.72217440  0.86898398  0.75426968    -0.11700
C1386       C  0.74872312  0.86707185  0.74734393     0.14900
C1387       C  0.76073515  0.83903798  0.74080129     0.01800
C1388       C  0.74621302  0.81348285  0.74231883    -0.16000
C1389       C  0.71942734  0.81487310  0.74974614    -0.10900
C1390       C  0.70724342  0.84359248  0.75457565     0.10500
C1391       C  0.76341922  0.89470281  0.74800423     0.09500
S1392       S  0.79439419  0.83445252  0.72921119    -0.25200
H1393       H  0.75618192  0.79281401  0.73580547     0.19800
S1394       S  0.67257231  0.84891424  0.76019740    -0.30900
H1395       H  0.71311109  0.89069548  0.75916982     0.10100
C1396       C  0.75795572  0.91818407  0.72615870     0.03300
C1397       C  0.77101792  0.94475139  0.72930417    -0.13200
C1398       C  0.78974659  0.94829553  0.75355897    -0.08900
C1399       C  0.79610353  0.92415421  0.77437807     0.06700
C1400       C  0.78263367  0.89777128  0.77159389    -0.13900
S1401       S  0.73470181  0.91418905  0.69391196    -0.30900
H1402       H  0.76661732  0.96296112  0.71278464     0.11000
S1403       S  0.82016411  0.92696651  0.80570188    -0.28000
H1404       H  0.78666576  0.87954987  0.78822630     0.08200
H1405       H  0.67129549  0.88024823  0.75926834     0.26600
H1406       H  0.73911707  0.94137749  0.67836785     0.21400
H1407       H  0.82024708  0.89710333  0.81595807     0.26800
H1408       H  0.79569458  0.86191027  0.71307326     0.15600
C1409       C  0.58180618  0.72145095  0.88454660    -0.11700
C1410       C  0.59377768  0.74830658  0.87831495     0.14900
C1411       C  0.58563821  0.77412169  0.89568988     0.01800
C1412       C  0.56701976  0.77206233  0.92013372    -0.16000
C1413       C  0.55504371  0.74510096  0.92679356    -0.10900
C1414       C  0.56222137  0.71967391  0.90786353     0.08500
C1415       C  0.61392528  0.74882717  0.85270434     0.09500
S1416       S  0.59767273  0.81052563  0.88737726    -0.25200
H1417       H  0.56163746  0.79197560  0.93377245     0.19800
S1418       S  0.54647772  0.68469625  0.91069727    -0.30900
H1419       H  0.58742026  0.70179240  0.87057615     0.10100
C1420       C  0.63997998  0.75438546  0.85975610     0.03300
C1421       C  0.65785649  0.75635963  0.83435247    -0.13200
C1422       C  0.65036213  0.75296995  0.80183626    -0.08900
C1423       C  0.62433035  0.74615613  0.79501005     0.06700
C1424       C  0.60655074  0.74407135  0.82055709    -0.13900
S1425       S  0.65059813  0.75858457  0.90110495    -0.30900
H1426       H  0.67783712  0.76078910  0.83983569     0.11000
S1427       S  0.61260699  0.74211753  0.75415123    -0.28000
H1428       H  0.58648531  0.73967027  0.81551256     0.08200
H1429       H  0.52129830  0.69800875  0.90996719     0.26600
H1430       H  0.67589029  0.76712128  0.89394517     0.21400
H1431       H  0.58711252  0.73471291  0.76182841     0.26800
H1432       H  0.60234402  0.80575484  0.85422783     0.15600
C1433       C  0.61572415  0.77594698  0.65729216    -0.11700
C1434       C  0.61758246  0.74980442  0.63878901     0.14900
C1435       C  0.63703942  0.72777047  0.64614516     0.01800
C1436       C  0.65371760  0.73215207  0.67231948    -0.16000
C1437       C  0.65188086  0.75841260  0.69073609    -0.10900
C1438       C  0.63241265  0.78040263  0.68325903     0.08500
C1439       C  0.59842559  0.74641480  0.61256239     0.09500
S1440       S  0.64188857  0.69393345  0.62295690    -0.25200
H1441       H  0.66867413  0.71527946  0.67788029     0.19800
S1442       S  0.62684271  0.81395449  0.70668569    -0.30900
H1443       H  0.60067914  0.79275847  0.65188346     0.10100
C1444       C  0.57793789  0.72674912  0.61536879     0.03300
C1445       C  0.55912441  0.72609895  0.59088004    -0.13200
C1446       C  0.56013406  0.74512631  0.56397963    -0.08900
C1447       C  0.58110394  0.76422404  0.56090726     0.06700
C1448       C  0.59977785  0.76491441  0.58536618    -0.13900
S1449       S  0.57494994  0.70373829  0.65091692    -0.30900
H1450       H  0.54305558  0.71147556  0.59319759     0.11000
S1451       S  0.58559483  0.78753435  0.52599890    -0.28000
H1452       H  0.61558439  0.77996416  0.58318582     0.08200
H1453       H  0.63421549  0.80139833  0.73658638     0.26600
H1454       H  0.55191877  0.69031272  0.64173489     0.21400
H1455       H  0.57631276  0.76697587  0.50352624     0.26800
H1456       H  0.63127184  0.70497091  0.59383007     0.15600
loop_ 
_geom_bond_atom_site_label_1 
_geom_bond_atom_site_label_2 
_geom_bond_distance 
_geom_bond_site_symmetry_2 
_ccdc_geom_bond_type 
C1            C2   1.535       .  S
C1            C7   1.544       .  S
C1            C5   1.537       .  S
C1          C297   1.539       .  S
C2            H9   1.086       .  S
C2            C3   1.362       .  D
C3            C4   1.535       .  S
C3          C345   1.479       .  S
C4            C8   1.539       .  S
C4            C6   1.545       .  S
C4           H10   1.109       .  S
C5           H11   1.086       .  S
C5            C6   1.370       .  D
C6          C330   1.495       .  S
C7           H12   1.081       .  S
C7            C8   1.366       .  D
C8          C282   1.490       .  S
C13          C14   1.538       .  S
C13          C17   1.547       .  S
C13         C747   1.532       .  S
C13         C273   1.537       .  S
C14          H21   1.084       .  S
C14         C743   1.362       .  D
C15          C16   1.541       .  S
C15         C742   1.362       .  D
C15         C234   1.477       .  S
C16          C20   1.537       .  S
C16          C18   1.538       .  S
C16          H22   1.109       .  S
C17          H23   1.084       .  S
C17         C746   1.370       .  D
C18         C745   1.370       .  D
C18         C258   1.490       .  S
C19         C741   1.532       .  S
C19          H24   1.087       .  S
C19          C20   1.364       .  D
C20         C306   1.485       .  S
C25          C26   1.533       .  S
C25          C31   1.538       .  S
C25          C29   1.550       .  S
C25         C153   1.546       .  S
C26          H33   1.086       .  S
C26          C27   1.362       .  D
C27          C28   1.546       .  S
C27         C210   1.482       .  S
C28          C32   1.542       .  S
C28          C30   1.542       .  S
C28          H34   1.109       .  S
C29          H35   1.075       .  S
C29          C30   1.370       .  D
C30         C177   1.497       .  S
C31          H36   1.086       .  S
C31          C32   1.368       .  D
C32         C138   1.493       .  S
C37          C38   1.538       .  S
C37          C41   1.548       .  S
C37         C771   1.543   1_545  S
C37         C162   1.545       .  S
C38          H45   1.086       .  S
C38         C767   1.366   1_545  D
C39          C40   1.532       .  S
C39         C766   1.365       .  D
C39         C114   1.479       .  S
C40          C44   1.536       .  S
C40          C42   1.531       .  S
C40          H46   1.111       .  S
C41          H47   1.078       .  S
C41         C770   1.363   1_545  D
C42         C769   1.364       .  D
C42          C81   1.478       .  S
C43         C765   1.543       .  S
C43          H48   1.086       .  S
C43          C44   1.369       .  D
C44         C129   1.484       .  S
O49         Ni57   1.910       .  S
O49          C59   1.281       .  A
O50        Ni421   1.912   1_655  S
O50          C60   1.280       .  A
O51         Ni57   1.913   1_655  S
O51          C61   1.280       .  A
O52        Ni421   1.911       .  S
O52          C62   1.281       .  A
O53        Ni422   1.918       .  S
O53          C62   1.281       .  A
O54         Ni58   1.918   1_655  S
O54          C61   1.282       .  A
O55        Ni422   1.921   1_655  S
O55          C60   1.282       .  A
O56         Ni58   1.920       .  S
O56          C59   1.281       .  A
Ni57        O414   1.912   1_454  S
Ni57        O416   1.913   1_554  S
Ni57        Ni58   2.387       .  S
Ni58        O417   1.918   1_554  S
Ni58        O419   1.921   1_454  S
C59         C105   1.486       .  S
C60         C225   1.479       .  S
C61         C249   1.478       .  S
C62          C90   1.477       .  S
O63         Ni71   1.919   1_554  S
O63          C73   1.283       .  A
O64        Ni435   1.919       .  S
O64          C74   1.281       .  A
O65         Ni71   1.915   1_554  S
O65          C75   1.280       .  A
O66        Ni435   1.916       .  S
O66          C76   1.282       .  A
O67        Ni436   1.919       .  S
O67          C76   1.281       .  A
O68         Ni72   1.920   1_554  S
O68          C75   1.282       .  A
O69        Ni436   1.917       .  S
O69          C74   1.282       .  A
O70         Ni72   1.921   1_554  S
O70          C73   1.281       .  A
Ni71        O428   1.920       .  S
Ni71        O430   1.915       .  S
Ni71        Ni72   2.385       .  S
Ni72        O431   1.919       .  S
Ni72        O433   1.917       .  S
C73         C201   1.486       .  S
C74         C321   1.491       .  S
C75         C354   1.477       .  S
C76         C186   1.483       .  S
C77          C82   1.396       .  A
C77         C806   1.402       .  A
C77          H87   1.084   1_565  S
C78          C83   1.477       .  S
C78          C79   1.413       .  A
C78         C805   1.401       .  A
C79          C80   1.402       .  A
C79          S84   1.804       .  S
C80          C81   1.403       .  A
C80          H85   1.084       .  S
C81         C810   1.413       .  A
C82         C809   1.413       .  A
C82          S86   1.805   1_565  S
C83          C88   1.408       .  A
C83          C92   1.401       .  A
S84         H100   1.405       .  S
S86          H97   1.404       .  S
C88          C89   1.399       .  A
C88          S93   1.808       .  S
C89          C90   1.404       .  A
C89          H94   1.083       .  S
C90          C91   1.415       .  A
C91          C92   1.401       .  A
C91          S95   1.802       .  S
C92          H96   1.084       .  S
S93          H98   1.407       .  S
S95          H99   1.407       .  S
C101        C102   1.401       .  A
C101        C106   1.405       .  A
C101        H111   1.082       .  S
C102        C107   1.477       .  S
C102        C103   1.409       .  A
C103        C104   1.395       .  A
C103        S836   1.805       .  S
C104        C105   1.407       .  A
C104        H109   1.083       .  S
C105        C106   1.418       .  A
C106        S110   1.807       .  S
C107        C112   1.409       .  A
C107        C116   1.401       .  A
S108        C831   1.805   1_545  S
S108        H124   1.405       .  S
S110        H121   1.407       .  S
C112        C113   1.402       .  A
C112        S845   1.807       .  S
C113        C114   1.404       .  A
C113        H846   1.083       .  S
C114        C115   1.412       .  A
C115        C116   1.398       .  A
C115        S119   1.803       .  S
C116        H120   1.084       .  S
S117        C840   1.806       .  S
S117        H122   1.407       .  S
H118        C841   1.083       .  S
S119        H123   1.407       .  S
C125        C126   1.404       .  A
C125        C130   1.401       .  A
C125        H135   1.084       .  S
C126        C131   1.485       .  S
C126        C127   1.414       .  A
C127        C128   1.401       .  A
C127        S132   1.805       .  S
C128        C129   1.403       .  A
C128        H133   1.084       .  S
C129        C130   1.413       .  A
C130        S134   1.803       .  S
C131        C136   1.410       .  A
C131        C140   1.402       .  A
S132        H148   1.405       .  S
S134        H145   1.406       .  S
C136        C137   1.405       .  A
C136        S141   1.806       .  S
C137        C138   1.404       .  A
C137        H142   1.078       .  S
C138        C139   1.418       .  A
C139        C140   1.401       .  A
C139        S143   1.804       .  S
C140        H144   1.084       .  S
S141        H146   1.407       .  S
S143        H147   1.407       .  S
C149        C150   1.399       .  A
C149        C154   1.407       .  A
C149        H159   1.082       .  S
C150        C155   1.482       .  S
C150        C151   1.406       .  A
C151        C152   1.399       .  A
C151        S156   1.807       .  S
C152        C153   1.416       .  A
C152        H157   1.066       .  S
C153        C154   1.426       .  A
C154        S158   1.811       .  S
C155        C160   1.403       .  A
C155        C164   1.398       .  A
S156        H172   1.405       .  S
S158        H169   1.406       .  S
C160        C161   1.402       .  A
C160        S165   1.809       .  S
C161        C162   1.416       .  A
C161        H166   1.069       .  S
C162        C163   1.426       .  A
C163        C164   1.406       .  A
C163        S167   1.810       .  S
C164        H168   1.082       .  S
S165        H170   1.406       .  S
S167        H899   1.406       .  S
H171        S895   1.406       .  S
C173        C174   1.402       .  A
C173        C178   1.406       .  A
C173        H183   1.082       .  S
C174        C179   1.481       .  S
C174        C175   1.409       .  A
C175        C176   1.398       .  A
C175        S180   1.805       .  S
C176        C177   1.409       .  A
C176        H181   1.083       .  S
C177        C178   1.416       .  A
C178        S182   1.802       .  S
C179        C184   1.409       .  A
C179        C188   1.402       .  A
S180        H196   1.405       .  S
S182        H193   1.406       .  S
C184        C185   1.402       .  A
C184        S189   1.807       .  S
C185        C186   1.406       .  A
C185        H190   1.083       .  S
C186        C187   1.417       .  A
C187        C188   1.401       .  A
C187        S191   1.802       .  S
C188        H192   1.084       .  S
S189        H194   1.407       .  S
S191        H195   1.408       .  S
C197        C198   1.402       .  A
C197        C202   1.403       .  A
C197        H207   1.084       .  S
C198        C203   1.482       .  S
C198        C199   1.411       .  A
C199        C200   1.399       .  A
C199        S204   1.804       .  S
C200        C201   1.406       .  A
C200        H205   1.084       .  S
C201        C202   1.418       .  A
C202        S206   1.802       .  S
C203        C208   1.408       .  A
C203        C212   1.403       .  A
S204        H220   1.405       .  S
S206        H217   1.408       .  S
C208        C209   1.401       .  A
C208        S213   1.807       .  S
C209        C210   1.403       .  A
C209        H214   1.083       .  S
C210        C211   1.414       .  A
C211        C212   1.403       .  A
C211        S215   1.802       .  S
C212        H216   1.083       .  S
S213        H218   1.407       .  S
S215        H219   1.404       .  S
C221        C222   1.401       .  A
C221        C226   1.397       .  A
C221        H959   1.084       .  S
C222        C227   1.477       .  S
C222        C223   1.411       .  A
C223        C224   1.401       .  A
C223        S228   1.803       .  S
C224        C225   1.406       .  A
C224        H229   1.083       .  S
C225        C226   1.416       .  A
C226        S958   1.803       .  S
C227        C232   1.408       .  A
C227        C964   1.401       .  A
S228        H244   1.406       .  S
S230        C954   1.803   1_545  S
S230        H241   1.407       .  S
H231        C949   1.083   1_545  S
C232        C233   1.402       .  A
C232        S237   1.806       .  S
C233        C234   1.402       .  A
C233        H238   1.083       .  S
C234        C963   1.413       .  A
C235        C236   1.399   1_545  A
C235        C962   1.413   1_545  A
C235        S239   1.804       .  S
C236        C955   1.402       .  A
C236        H240   1.084   1_565  S
S237        H242   1.407       .  S
S239        H243   1.403       .  S
C245        C974   1.402       .  A
C245        C978   1.398       .  A
C245        H255   1.084   1_565  S
C246        C251   1.480       .  S
C246        C247   1.411       .  A
C246        C973   1.402       .  A
C247        C248   1.400       .  A
C247        S252   1.803       .  S
C248        C249   1.405       .  A
C248        H253   1.084       .  S
C249        C250   1.415       .  A
C250        C973   1.398       .  A
C250        S982   1.803       .  S
C251        C256   1.408       .  A
C251        C260   1.401       .  A
S252        H268   1.406       .  S
S254        C978   1.804   1_545  S
S254        H265   1.407   1_545  S
C256        C257   1.402       .  A
C256        S261   1.807       .  S
C257        C258   1.405       .  A
C257        H262   1.079       .  S
C258        C259   1.417       .  A
C259        C260   1.399       .  A
C259        S991   1.804       .  S
C260        H992   1.084       .  S
S261        H266   1.407       .  S
S263        C987   1.804   1_545  S
S263        H267   1.407   1_545  S
H264        C988   1.084       .  S
C269        C270   1.401       .  A
C269        C274   1.400       .  A
C269        H279   1.084       .  S
C270        C275   1.489       .  S
C270        C271   1.411       .  A
C271        C272   1.399       .  A
C271        S276   1.805       .  S
C272        C273   1.412       .  A
C272        H277   1.081       .  S
C273        C274   1.426       .  A
C274        S278   1.806       .  S
C275        C280   1.413       .  A
C275        C284   1.402       .  A
S276        H292   1.407       .  S
S278        H289   1.403       .  S
C280        C281   1.405       .  A
C280        S285   1.807       .  S
C281        C282   1.405       .  A
C281        H286   1.082       .  S
C282        C283   1.417       .  A
C283        C284   1.397       .  A
C283        S287   1.805       .  S
C284        H288   1.084       .  S
S285        H290   1.407       .  S
S287        H291   1.407       .  S
C293        C294   1.398       .  A
C293        C298   1.402       .  A
C293        H303   1.083       .  S
C294        C299   1.480       .  S
C294        C295   1.406       .  A
C295        C296   1.397       .  A
C295        S300   1.805       .  S
C296        C297   1.414       .  A
C296        H301   1.077       .  S
C297        C298   1.426       .  A
C298        S302   1.810       .  S
C299        C304   1.408       .  A
C299        C308   1.401       .  A
S300        H316   1.406       .  S
S302        H313   1.406       .  S
C304        C305   1.400       .  A
C304        S309   1.807       .  S
C305        C306   1.406       .  A
C305        H310   1.083       .  S
C306        C307   1.412       .  A
C307        C308   1.402       .  A
C307        S311   1.802       .  S
C308        H312   1.083       .  S
S309        H314   1.407       .  S
S311        H315   1.406       .  S
C317        C318   1.401       .  A
C317        C322   1.400       .  A
C317        H327   1.084       .  S
C318        C323   1.483       .  S
C318        C319   1.412       .  A
C319        C320   1.399       .  A
C319        S324   1.805       .  S
C320        C321   1.409       .  A
C320        H325   1.083       .  S
C321        C322   1.420       .  A
C322        S326   1.802       .  S
C323        C328   1.408       .  A
C323        C332   1.401       .  A
S324        H340   1.406       .  S
S326        H337   1.408       .  S
C328        C329   1.402       .  A
C328        S333   1.807       .  S
C329        C330   1.408       .  A
C329        H334   1.082       .  S
C330        C331   1.418       .  A
C331        C332   1.404       .  A
C331        S335   1.805       .  S
C332        H336   1.082       .  S
S333        H338   1.407       .  S
S335        H339   1.406       .  S
C341        C342   1.400       .  A
C341        C346   1.396       .  A
C341        H351   1.084       .  S
C342        C347   1.479       .  S
C342        C343   1.414       .  A
C343        C344   1.401       .  A
C343        S348   1.804       .  S
C344        C345   1.403       .  A
C344        H349   1.084       .  S
C345        C346   1.414       .  A
C346        S350   1.803       .  S
C347        C352   1.410       .  A
C347        C356   1.402       .  A
S348        H364   1.405       .  S
S350        H361   1.405       .  S
C352        C353   1.404       .  A
C352        S357   1.807       .  S
C353        C354   1.405       .  A
C353        H358   1.083       .  S
C354        C355   1.414       .  A
C355        C356   1.398       .  A
C355        S359   1.803       .  S
C356        H360   1.084       .  S
S357        H362   1.407       .  S
S359        H363   1.407       .  S
C365        C366   1.535       .  S
C365        C371   1.544       .  S
C365        C369   1.537       .  S
C365        C661   1.539       .  S
C366        H373   1.087       .  S
C366        C367   1.362       .  D
C367        C368   1.535       .  S
C367        C709   1.480       .  S
C368        C372   1.540       .  S
C368        C370   1.545       .  S
C368        H374   1.109       .  S
C369        H375   1.086       .  S
C369        C370   1.370       .  D
C370        C694   1.495       .  S
C371        H376   1.081       .  S
C371        C372   1.366       .  D
C372        C646   1.490       .  S
C377        C378   1.537       .  S
C377       C1111   1.532       .  S
C377        C381   1.547       .  S
C377        C637   1.537       .  S
C378        H385   1.084       .  S
C378       C1107   1.362       .  D
C379        C380   1.541       .  S
C379       C1106   1.362       .  D
C379        C598   1.476       .  S
C380        C384   1.538       .  S
C380        C382   1.537       .  S
C380        H386   1.109       .  S
C381        H387   1.084       .  S
C381       C1110   1.370       .  D
C382       C1109   1.369       .  D
C382        C622   1.488       .  S
C383       C1105   1.532       .  S
C383        H388   1.087       .  S
C383        C384   1.365       .  D
C384        C670   1.487       .  S
C389        C390   1.533       .  S
C389        C395   1.538       .  S
C389        C393   1.549       .  S
C389        C517   1.546       .  S
C390        H397   1.086       .  S
C390        C391   1.362       .  D
C391        C392   1.546       .  S
C391        C574   1.481       .  S
C392        C396   1.542       .  S
C392        C394   1.541       .  S
C392        H398   1.109       .  S
C393        H399   1.077       .  S
C393        C394   1.369       .  D
C394        C541   1.497       .  S
C395        H400   1.086       .  S
C395        C396   1.368       .  D
C396        C502   1.492       .  S
C401        C402   1.538       .  S
C401       C1135   1.543   1_545  S
C401        C405   1.548       .  S
C401        C526   1.545       .  S
C402        H409   1.086       .  S
C402       C1131   1.366   1_545  D
C403        C404   1.533       .  S
C403       C1130   1.366       .  D
C403        C478   1.481       .  S
C404        C408   1.534       .  S
C404        C406   1.531       .  S
C404        H410   1.111       .  S
C405        H411   1.079       .  S
C405       C1134   1.363   1_545  D
C406       C1133   1.363       .  D
C406        C445   1.477       .  S
C407       C1129   1.544       .  S
C407        H412   1.086       .  S
C407        C408   1.369       .  D
C408        C493   1.483       .  S
O413       Ni421   1.909       .  S
O413        C423   1.281       .  A
O414        C424   1.280       .  A
O415       Ni421   1.912   1_655  S
O415        C425   1.280       .  A
O416        C426   1.281       .  A
O417        C426   1.281       .  A
O418       Ni422   1.918   1_655  S
O418        C425   1.282       .  A
O419        C424   1.282       .  A
O420       Ni422   1.921       .  S
O420        C423   1.282       .  A
Ni421      Ni422   2.388       .  S
C423        C469   1.482       .  S
C424        C589   1.477       .  S
C425        C613   1.480       .  S
C426        C454   1.480       .  S
O427       Ni435   1.919       .  S
O427        C437   1.283       .  A
O428        C438   1.281       .  A
O429       Ni435   1.915       .  S
O429        C439   1.280       .  A
O430        C440   1.281       .  A
O431        C440   1.281       .  A
O432       Ni436   1.920       .  S
O432        C439   1.282       .  A
O433        C438   1.282       .  A
O434       Ni436   1.921       .  S
O434        C437   1.281       .  A
Ni435      Ni436   2.385       .  S
C437        C565   1.486       .  S
C438        C685   1.492       .  S
C439        C718   1.477       .  S
C440        C550   1.482       .  S
C441       C1170   1.402       .  A
C441        C446   1.396       .  A
C441        H451   1.084   1_565  S
C442        C447   1.478       .  S
C442       C1169   1.402       .  A
C442        C443   1.413       .  A
C443        C444   1.402       .  A
C443        S448   1.803       .  S
C444        C445   1.403       .  A
C444        H449   1.084       .  S
C445       C1174   1.412       .  A
C446       C1173   1.413       .  A
C446        S450   1.805   1_565  S
C447        C452   1.408       .  A
C447        C456   1.401       .  A
S448        H464   1.405       .  S
S450        H461   1.404       .  S
C452        C453   1.400       .  A
C452        S457   1.807       .  S
C453        C454   1.405       .  A
C453        H458   1.083       .  S
C454        C455   1.417       .  A
C455        C456   1.400       .  A
C455        S459   1.802       .  S
C456        H460   1.084       .  S
S457        H462   1.407       .  S
S459        H463   1.407       .  S
C465        C466   1.402       .  A
C465        C470   1.402       .  A
C465        H475   1.084       .  S
C466        C471   1.477       .  S
C466        C467   1.411       .  A
C467        C468   1.395       .  A
C467       S1200   1.805       .  S
C468        C469   1.405       .  A
C468        H473   1.084       .  S
C469        C470   1.417       .  A
C470        S474   1.802       .  S
C471        C476   1.409       .  A
C471        C480   1.401       .  A
S472       C1195   1.805   1_545  S
S472        H488   1.405       .  S
S474        H485   1.408       .  S
C476        C477   1.402       .  A
C476       S1209   1.806       .  S
C477        C478   1.404       .  A
C477       H1210   1.083       .  S
C478        C479   1.413       .  A
C479        C480   1.398       .  A
C479        S483   1.802       .  S
C480        H484   1.084       .  S
S481       C1204   1.806       .  S
S481        H486   1.407       .  S
H482       C1205   1.083       .  S
S483        H487   1.407       .  S
C489        C490   1.404       .  A
C489        C494   1.401       .  A
C489        H499   1.084       .  S
C490        C495   1.485       .  S
C490        C491   1.414       .  A
C491        C492   1.401       .  A
C491        S496   1.804       .  S
C492        C493   1.403       .  A
C492        H497   1.084       .  S
C493        C494   1.413       .  A
C494        S498   1.803       .  S
C495        C500   1.410       .  A
C495        C504   1.402       .  A
S496        H512   1.405       .  S
S498        H509   1.406       .  S
C500        C501   1.404       .  A
C500        S505   1.807       .  S
C501        C502   1.403       .  A
C501        H506   1.078       .  S
C502        C503   1.418       .  A
C503        C504   1.401       .  A
C503        S507   1.804       .  S
C504        H508   1.084       .  S
S505        H510   1.407       .  S
S507        H511   1.407       .  S
C513        C514   1.399       .  A
C513        C518   1.407       .  A
C513        H523   1.082       .  S
C514        C519   1.482       .  S
C514        C515   1.406       .  A
C515        C516   1.398       .  A
C515        S520   1.807       .  S
C516        C517   1.415       .  A
C516        H521   1.070       .  S
C517        C518   1.427       .  A
C518        S522   1.811       .  S
C519        C524   1.403       .  A
C519        C528   1.398       .  A
S520        H536   1.405       .  S
S522        H533   1.406       .  S
C524        C525   1.401       .  A
C524        S529   1.809       .  S
C525        C526   1.416       .  A
C525        H530   1.070       .  S
C526        C527   1.426       .  A
C527        C528   1.406       .  A
C527        S531   1.810       .  S
C528        H532   1.082       .  S
S529        H534   1.407       .  S
S531       H1263   1.406       .  S
H535       S1259   1.406       .  S
C537        C538   1.402       .  A
C537        C542   1.406       .  A
C537        H547   1.083       .  S
C538        C543   1.481       .  S
C538        C539   1.409       .  A
C539        C540   1.398       .  A
C539        S544   1.805       .  S
C540        C541   1.409       .  A
C540        H545   1.084       .  S
C541        C542   1.416       .  A
C542        S546   1.802       .  S
C543        C548   1.409       .  A
C543        C552   1.402       .  A
S544        H560   1.405       .  S
S546        H557   1.406       .  S
C548        C549   1.401       .  A
C548        S553   1.807       .  S
C549        C550   1.406       .  A
C549        H554   1.083       .  S
C550        C551   1.417       .  A
C551        C552   1.401       .  A
C551        S555   1.803       .  S
C552        H556   1.084       .  S
S553        H558   1.407       .  S
S555        H559   1.408       .  S
C561        C562   1.402       .  A
C561        C566   1.403       .  A
C561        H571   1.084       .  S
C562        C567   1.481       .  S
C562        C563   1.411       .  A
C563        C564   1.398       .  A
C563        S568   1.804       .  S
C564        C565   1.406       .  A
C564        H569   1.084       .  S
C565        C566   1.418       .  A
C566        S570   1.802       .  S
C567        C572   1.408       .  A
C567        C576   1.403       .  A
S568        H584   1.405       .  S
S570        H581   1.408       .  S
C572        C573   1.401       .  A
C572        S577   1.807       .  S
C573        C574   1.403       .  A
C573        H578   1.083       .  S
C574        C575   1.413       .  A
C575        C576   1.403       .  A
C575        S579   1.802       .  S
C576        H580   1.083       .  S
S577        H582   1.407       .  S
S579        H583   1.405       .  S
C585        C586   1.401       .  A
C585        C590   1.397       .  A
C585       H1323   1.083       .  S
C586        C591   1.478       .  S
C586        C587   1.412       .  A
C587        C588   1.401       .  A
C587        S592   1.804       .  S
C588        C589   1.405       .  A
C588        H593   1.083       .  S
C589        C590   1.414       .  A
C590       S1322   1.803       .  S
C591        C596   1.408       .  A
C591       C1328   1.401       .  A
S592        H608   1.406       .  S
S594       C1318   1.803   1_545  S
S594        H605   1.407   1_545  S
H595       C1313   1.084   1_545  S
C596        C597   1.401       .  A
C596        S601   1.806       .  S
C597        C598   1.402       .  A
C597        H602   1.083       .  S
C598       C1327   1.413       .  A
C599       C1326   1.413   1_545  A
C599        C600   1.399   1_545  A
C599        S603   1.804       .  S
C600       C1319   1.402       .  A
C600        H604   1.084   1_565  S
S601        H606   1.407       .  S
S603        H607   1.402       .  S
C609       C1338   1.402       .  A
C609       C1342   1.398       .  A
C609        H619   1.084   1_565  S
C610        C615   1.479       .  S
C610       C1337   1.401       .  A
C610        C611   1.411       .  A
C611        C612   1.399       .  A
C611        S616   1.803       .  S
C612        C613   1.405       .  A
C612        H617   1.084       .  S
C613        C614   1.416       .  A
C614       C1337   1.398       .  A
C614       S1346   1.803       .  S
C615        C620   1.408       .  A
C615        C624   1.401       .  A
S616        H632   1.406       .  S
S618       C1342   1.803   1_545  S
S618        H629   1.407   1_545  S
C620        C621   1.401       .  A
C620        S625   1.807       .  S
C621        C622   1.404       .  A
C621        H626   1.079       .  S
C622        C623   1.416       .  A
C623        C624   1.399       .  A
C623       S1355   1.804       .  S
C624       H1356   1.084       .  S
S625        H630   1.407       .  S
S627       C1351   1.804   1_545  S
S627        H631   1.407   1_545  S
H628       C1352   1.084       .  S
C633        C634   1.401       .  A
C633        C638   1.400       .  A
C633        H643   1.084       .  S
C634        C639   1.488       .  S
C634        C635   1.411       .  A
C635        C636   1.399       .  A
C635        S640   1.805       .  S
C636        C637   1.412       .  A
C636        H641   1.081       .  S
C637        C638   1.426       .  A
C638        S642   1.806       .  S
C639        C644   1.413       .  A
C639        C648   1.402       .  A
S640        H656   1.407       .  S
S642        H653   1.403       .  S
C644        C645   1.405       .  A
C644        S649   1.807       .  S
C645        C646   1.405       .  A
C645        H650   1.082       .  S
C646        C647   1.417       .  A
C647        C648   1.397       .  A
C647        S651   1.805       .  S
C648        H652   1.084       .  S
S649        H654   1.407       .  S
S651        H655   1.407       .  S
C657        C658   1.398       .  A
C657        C662   1.402       .  A
C657        H667   1.083       .  S
C658        C663   1.481       .  S
C658        C659   1.406       .  A
C659        C660   1.397       .  A
C659        S664   1.805       .  S
C660        C661   1.414       .  A
C660        H665   1.077       .  S
C661        C662   1.425       .  A
C662        S666   1.810       .  S
C663        C668   1.408       .  A
C663        C672   1.401       .  A
S664        H680   1.406       .  S
S666        H677   1.406       .  S
C668        C669   1.400       .  A
C668        S673   1.807       .  S
C669        C670   1.406       .  A
C669        H674   1.083       .  S
C670        C671   1.413       .  A
C671        C672   1.402       .  A
C671        S675   1.802       .  S
C672        H676   1.083       .  S
S673        H678   1.407       .  S
S675        H679   1.406       .  S
C681        C682   1.401       .  A
C681        C686   1.400       .  A
C681        H691   1.084       .  S
C682        C687   1.484       .  S
C682        C683   1.412       .  A
C683        C684   1.400       .  A
C683        S688   1.805       .  S
C684        C685   1.409       .  A
C684        H689   1.083       .  S
C685        C686   1.420       .  A
C686        S690   1.801       .  S
C687        C692   1.408       .  A
C687        C696   1.401       .  A
S688        H704   1.406       .  S
S690        H701   1.408       .  S
C692        C693   1.403       .  A
C692        S697   1.807       .  S
C693        C694   1.409       .  A
C693        H698   1.082       .  S
C694        C695   1.418       .  A
C695        C696   1.404       .  A
C695        S699   1.805       .  S
C696        H700   1.082       .  S
S697        H702   1.407       .  S
S699        H703   1.406       .  S
C705        C706   1.401       .  A
C705        C710   1.396       .  A
C705        H715   1.084       .  S
C706        C711   1.480       .  S
C706        C707   1.414       .  A
C707        C708   1.401       .  A
C707        S712   1.804       .  S
C708        C709   1.403       .  A
C708        H713   1.084       .  S
C709        C710   1.414       .  A
C710        S714   1.803       .  S
C711        C716   1.410       .  A
C711        C720   1.402       .  A
S712        H728   1.405       .  S
S714        H725   1.405       .  S
C716        C717   1.404       .  A
C716        S721   1.807       .  S
C717        C718   1.405       .  A
C717        H722   1.083       .  S
C718        C719   1.414       .  A
C719        C720   1.398       .  A
C719        S723   1.803       .  S
C720        H724   1.084       .  S
S721        H726   1.407       .  S
S723        H727   1.407       .  S
C729        C730   1.535       .  S
C729        C735   1.544       .  S
C729        C733   1.537       .  S
C729       C1025   1.540       .  S
C730        H737   1.086       .  S
C730        C731   1.362       .  D
C731        C732   1.535       .  S
C731       C1073   1.480       .  S
C732        C736   1.540       .  S
C732        C734   1.546       .  S
C732        H738   1.109       .  S
C733        H739   1.086       .  S
C733        C734   1.370       .  D
C734       C1058   1.495       .  S
C735        H740   1.081       .  S
C735        C736   1.366       .  D
C736       C1010   1.490       .  S
C741        C742   1.537       .  S
C741        C745   1.547       .  S
C741       C1001   1.537       .  S
C742        H749   1.084       .  S
C743        C744   1.541   1_545  S
C743        C962   1.477   1_545  S
C744        C748   1.538       .  S
C744        C746   1.538   1_565  S
C744        H750   1.109       .  S
C745        H751   1.084       .  S
C746        C986   1.489   1_545  S
C747        H752   1.087       .  S
C747        C748   1.365   1_545  D
C748       C1034   1.487       .  S
C753        C754   1.534       .  S
C753        C759   1.538       .  S
C753        C757   1.549       .  S
C753        C881   1.546       .  S
C754        H761   1.086       .  S
C754        C755   1.362       .  D
C755        C756   1.546       .  S
C755        C938   1.482       .  S
C756        C760   1.542       .  S
C756        C758   1.541       .  S
C756        H762   1.109       .  S
C757        H763   1.077       .  S
C757        C758   1.369       .  D
C758        C905   1.497       .  S
C759        H764   1.086       .  S
C759        C760   1.368       .  D
C760        C866   1.493       .  S
C765        C766   1.537       .  S
C765        C769   1.548       .  S
C765        C890   1.544       .  S
C766        H773   1.086       .  S
C767        C768   1.533       .  S
C767        C842   1.479       .  S
C768        C772   1.535       .  S
C768        C770   1.531       .  S
C768        H774   1.111       .  S
C769        H775   1.081       .  S
C770        C809   1.477       .  S
C771        H776   1.085       .  S
C771        C772   1.369       .  D
C772        C857   1.483       .  S
O777       Ni785   1.911       .  S
O777        C787   1.281       .  A
O778      Ni1149   1.913   1_655  S
O778        C788   1.280       .  A
O779       Ni785   1.912   1_655  S
O779        C789   1.280       .  A
O780      Ni1149   1.912       .  S
O780        C790   1.281       .  A
O781      Ni1150   1.919       .  S
O781        C790   1.281       .  A
O782       Ni786   1.919   1_655  S
O782        C789   1.282       .  A
O783      Ni1150   1.920   1_655  S
O783        C788   1.282       .  A
O784       Ni786   1.919       .  S
O784        C787   1.281       .  A
Ni785      O1142   1.913   1_454  S
Ni785      O1144   1.911   1_554  S
Ni785      Ni786   2.386       .  S
Ni786      O1145   1.919   1_554  S
Ni786      O1147   1.920   1_454  S
C787        C833   1.487       .  S
C788        C953   1.477       .  S
C789        C977   1.479       .  S
C790        C818   1.480       .  S
O791       Ni799   1.920   1_554  S
O791        C801   1.283       .  A
O792      Ni1163   1.921       .  S
O792        C802   1.281       .  A
O793       Ni799   1.915   1_554  S
O793        C803   1.280       .  A
O794      Ni1163   1.916       .  S
O794        C804   1.281       .  A
O795      Ni1164   1.918       .  S
O795        C804   1.281       .  A
O796       Ni800   1.920   1_554  S
O796        C803   1.282       .  A
O797      Ni1164   1.917       .  S
O797        C802   1.282       .  A
O798       Ni800   1.921   1_554  S
O798        C801   1.281       .  A
Ni799      O1156   1.921       .  S
Ni799      O1158   1.916       .  S
Ni799      Ni800   2.385       .  S
Ni800      O1159   1.918       .  S
Ni800      O1161   1.917       .  S
C801        C929   1.487       .  S
C802       C1049   1.493       .  S
C803       C1082   1.477       .  S
C804        C914   1.482       .  S
C805        C810   1.395       .  A
C805        H815   1.084       .  S
C806        C811   1.478       .  S
C806        C807   1.412       .  A
C807        C808   1.401       .  A
C807        S812   1.803       .  S
C808        C809   1.403       .  A
C808        H813   1.084       .  S
C810        S814   1.805       .  S
C811        C816   1.408       .  A
C811        C820   1.401       .  A
S812        H828   1.406       .  S
S814        H825   1.405       .  S
C816        C817   1.400       .  A
C816        S821   1.808   1_565  S
C817        C818   1.405       .  A
C817        H822   1.083   1_565  S
C818        C819   1.416       .  A
C819        C820   1.400       .  A
C819        S823   1.802       .  S
C820        H824   1.084       .  S
S821        H826   1.407       .  S
S823        H827   1.407       .  S
C829        C830   1.400       .  A
C829        C834   1.405       .  A
C829        H839   1.083       .  S
C830        C835   1.476       .  S
C830        C831   1.409       .  A
C831        C832   1.395       .  A
C832        C833   1.407       .  A
C832        H837   1.084   1_565  S
C833        C834   1.419       .  A
C834        S838   1.808       .  S
C835        C840   1.408       .  A
C835        C844   1.401       .  A
S836        H852   1.405       .  S
S838        H849   1.407       .  S
C840        C841   1.402       .  A
C841        C842   1.403       .  A
C842        C843   1.413       .  A
C843        C844   1.398       .  A
C843        S847   1.803       .  S
C844        H848   1.084       .  S
S845        H850   1.407       .  S
S847        H851   1.407       .  S
C853        C854   1.403       .  A
C853        C858   1.401       .  A
C853        H863   1.084       .  S
C854        C859   1.484       .  S
C854        C855   1.414       .  A
C855        C856   1.401       .  A
C855        S860   1.804       .  S
C856        C857   1.403       .  A
C856        H861   1.084       .  S
C857        C858   1.413       .  A
C858        S862   1.803       .  S
C859        C864   1.410       .  A
C859        C868   1.401       .  A
S860        H876   1.405       .  S
S862        H873   1.406       .  S
C864        C865   1.404       .  A
C864        S869   1.806       .  S
C865        C866   1.404       .  A
C865        H870   1.078       .  S
C866        C867   1.418       .  A
C867        C868   1.401       .  A
C867        S871   1.804       .  S
C868        H872   1.084       .  S
S869        H874   1.407       .  S
S871        H875   1.407       .  S
C877        C878   1.399       .  A
C877        C882   1.407       .  A
C877        H887   1.082       .  S
C878        C883   1.482       .  S
C878        C879   1.406       .  A
C879        C880   1.398       .  A
C879        S884   1.807       .  S
C880        C881   1.416       .  A
C880        H885   1.069       .  S
C881        C882   1.426       .  A
C882        S886   1.811       .  S
C883        C888   1.403       .  A
C883        C892   1.398       .  A
S884        H900   1.405       .  S
S886        H897   1.406       .  S
C888        C889   1.401       .  A
C888        S893   1.808       .  S
C889        C890   1.416       .  A
C889        H894   1.073       .  S
C890        C891   1.425       .  A
C891        C892   1.406       .  A
C891        S895   1.810       .  S
C892        H896   1.083       .  S
S893        H898   1.407       .  S
C901        C902   1.402       .  A
C901        C906   1.406       .  A
C901        H911   1.083       .  S
C902        C907   1.481       .  S
C902        C903   1.409       .  A
C903        C904   1.398       .  A
C903        S908   1.805       .  S
C904        C905   1.409       .  A
C904        H909   1.084       .  S
C905        C906   1.416       .  A
C906        S910   1.802       .  S
C907        C912   1.409       .  A
C907        C916   1.401       .  A
S908        H924   1.405       .  S
S910        H921   1.406       .  S
C912        C913   1.402       .  A
C912        S917   1.807       .  S
C913        C914   1.406       .  A
C913        H918   1.083       .  S
C914        C915   1.417       .  A
C915        C916   1.401       .  A
C915        S919   1.803       .  S
C916        H920   1.084       .  S
S917        H922   1.407       .  S
S919        H923   1.408       .  S
C925        C926   1.402       .  A
C925        C930   1.404       .  A
C925        H935   1.084       .  S
C926        C931   1.483       .  S
C926        C927   1.411       .  A
C927        C928   1.399       .  A
C927        S932   1.804       .  S
C928        C929   1.406       .  A
C928        H933   1.084       .  S
C929        C930   1.418       .  A
C930        S934   1.802       .  S
C931        C936   1.409       .  A
C931        C940   1.403       .  A
S932        H948   1.405       .  S
S934        H945   1.408       .  S
C936        C937   1.401       .  A
C936        S941   1.806       .  S
C937        C938   1.403       .  A
C937        H942   1.083       .  S
C938        C939   1.414       .  A
C939        C940   1.404       .  A
C939        S943   1.802       .  S
C940        H944   1.083       .  S
S941        H946   1.407       .  S
S943        H947   1.405       .  S
C949        C950   1.402       .  A
C949        C954   1.398       .  A
C950        C955   1.479       .  S
C950        C951   1.412       .  A
C951        C952   1.401       .  A
C951        S956   1.804       .  S
C952        C953   1.405       .  A
C952        H957   1.083       .  S
C953        C954   1.414       .  A
C955        C960   1.409       .  A
S956        H972   1.406       .  S
S958        H969   1.408       .  S
C960        C961   1.402       .  A
C960        S965   1.806       .  S
C961        C962   1.402       .  A
C961        H966   1.083       .  S
C963        C964   1.399       .  A
C963        S967   1.803       .  S
C964        H968   1.084       .  S
S965        H970   1.407       .  S
S967        H971   1.403       .  S
C973        H983   1.084       .  S
C974        C979   1.480       .  S
C974        C975   1.411       .  A
C975        C976   1.400       .  A
C975        S980   1.803       .  S
C976        C977   1.405       .  A
C976        H981   1.084       .  S
C977        C978   1.416       .  A
C979        C984   1.408       .  A
C979        C988   1.401       .  A
S980        H996   1.406       .  S
S982        H993   1.407       .  S
C984        C985   1.402       .  A
C984        S989   1.807       .  S
C985        C986   1.405       .  A
C985        H990   1.080       .  S
C986        C987   1.417       .  A
C987        C988   1.399       .  A
S989        H994   1.407       .  S
S991        H995   1.407       .  S
C997        C998   1.401       .  A
C997       C1002   1.400       .  A
C997       H1007   1.084       .  S
C998       C1003   1.488       .  S
C998        C999   1.411       .  A
C999       C1000   1.399       .  A
C999       S1004   1.805       .  S
C1000      C1001   1.412       .  A
C1000      H1005   1.081       .  S
C1001      C1002   1.426       .  A
C1002      S1006   1.806       .  S
C1003      C1008   1.413       .  A
C1003      C1012   1.402       .  A
S1004      H1020   1.407       .  S
S1006      H1017   1.403       .  S
C1008      C1009   1.405       .  A
C1008      S1013   1.807       .  S
C1009      C1010   1.405       .  A
C1009      H1014   1.082       .  S
C1010      C1011   1.417       .  A
C1011      C1012   1.396       .  A
C1011      S1015   1.805       .  S
C1012      H1016   1.084       .  S
S1013      H1018   1.407       .  S
S1015      H1019   1.407       .  S
C1021      C1022   1.399       .  A
C1021      C1026   1.402       .  A
C1021      H1031   1.083       .  S
C1022      C1027   1.481       .  S
C1022      C1023   1.406       .  A
C1023      C1024   1.398       .  A
C1023      S1028   1.805       .  S
C1024      C1025   1.415       .  A
C1024      H1029   1.076       .  S
C1025      C1026   1.425       .  A
C1026      S1030   1.810       .  S
C1027      C1032   1.408       .  A
C1027      C1036   1.402       .  A
S1028      H1044   1.406       .  S
S1030      H1041   1.406       .  S
C1032      C1033   1.400       .  A
C1032      S1037   1.807       .  S
C1033      C1034   1.406       .  A
C1033      H1038   1.083       .  S
C1034      C1035   1.413       .  A
C1035      C1036   1.403       .  A
C1035      S1039   1.802       .  S
C1036      H1040   1.083       .  S
S1037      H1042   1.407       .  S
S1039      H1043   1.407       .  S
C1045      C1046   1.401       .  A
C1045      C1050   1.401       .  A
C1045      H1055   1.084       .  S
C1046      C1051   1.485       .  S
C1046      C1047   1.412       .  A
C1047      C1048   1.400       .  A
C1047      S1052   1.805       .  S
C1048      C1049   1.409       .  A
C1048      H1053   1.083       .  S
C1049      C1050   1.420       .  A
C1050      S1054   1.801       .  S
C1051      C1056   1.408       .  A
C1051      C1060   1.401       .  A
S1052      H1068   1.406       .  S
S1054      H1065   1.408       .  S
C1056      C1057   1.403       .  A
C1056      S1061   1.807       .  S
C1057      C1058   1.408       .  A
C1057      H1062   1.082       .  S
C1058      C1059   1.418       .  A
C1059      C1060   1.404       .  A
C1059      S1063   1.805       .  S
C1060      H1064   1.082       .  S
S1061      H1066   1.407       .  S
S1063      H1067   1.406       .  S
C1069      C1070   1.400       .  A
C1069      C1074   1.396       .  A
C1069      H1079   1.084       .  S
C1070      C1075   1.480       .  S
C1070      C1071   1.414       .  A
C1071      C1072   1.402       .  A
C1071      S1076   1.804       .  S
C1072      C1073   1.403       .  A
C1072      H1077   1.084       .  S
C1073      C1074   1.414       .  A
C1074      S1078   1.803       .  S
C1075      C1080   1.410       .  A
C1075      C1084   1.402       .  A
S1076      H1092   1.405       .  S
S1078      H1089   1.405       .  S
C1080      C1081   1.404       .  A
C1080      S1085   1.807       .  S
C1081      C1082   1.405       .  A
C1081      H1086   1.083       .  S
C1082      C1083   1.414       .  A
C1083      C1084   1.398       .  A
C1083      S1087   1.803       .  S
C1084      H1088   1.084       .  S
S1085      H1090   1.407       .  S
S1087      H1091   1.407       .  S
C1093      C1094   1.535       .  S
C1093      C1099   1.543       .  S
C1093      C1097   1.537       .  S
C1093      C1389   1.539       .  S
C1094      H1101   1.086       .  S
C1094      C1095   1.362       .  D
C1095      C1096   1.535       .  S
C1095      C1437   1.479       .  S
C1096      C1100   1.539       .  S
C1096      C1098   1.545       .  S
C1096      H1102   1.109       .  S
C1097      H1103   1.086       .  S
C1097      C1098   1.370       .  D
C1098      C1422   1.495       .  S
C1099      H1104   1.081       .  S
C1099      C1100   1.365       .  D
C1100      C1374   1.490       .  S
C1105      C1106   1.538       .  S
C1105      C1109   1.547       .  S
C1105      C1365   1.536       .  S
C1106      H1113   1.084       .  S
C1107      C1108   1.541   1_545  S
C1107      C1326   1.476   1_545  S
C1108      C1112   1.538       .  S
C1108      C1110   1.538   1_565  S
C1108      H1114   1.109       .  S
C1109      H1115   1.084       .  S
C1110      C1350   1.489   1_545  S
C1111      H1116   1.087       .  S
C1111      C1112   1.365   1_545  D
C1112      C1398   1.487       .  S
C1117      C1118   1.534       .  S
C1117      C1123   1.539       .  S
C1117      C1121   1.549       .  S
C1117      C1245   1.547       .  S
C1118      H1125   1.086       .  S
C1118      C1119   1.362       .  D
C1119      C1120   1.546       .  S
C1119      C1302   1.482       .  S
C1120      C1124   1.542       .  S
C1120      C1122   1.541       .  S
C1120      H1126   1.109       .  S
C1121      H1127   1.077       .  S
C1121      C1122   1.369       .  D
C1122      C1269   1.497       .  S
C1123      H1128   1.086       .  S
C1123      C1124   1.368       .  D
C1124      C1230   1.493       .  S
C1129      C1130   1.538       .  S
C1129      C1133   1.548       .  S
C1129      C1254   1.546       .  S
C1130      H1137   1.086       .  S
C1131      C1132   1.533       .  S
C1131      C1206   1.479       .  S
C1132      C1136   1.535       .  S
C1132      C1134   1.531       .  S
C1132      H1138   1.111       .  S
C1133      H1139   1.079       .  S
C1134      C1173   1.477       .  S
C1135      H1140   1.086       .  S
C1135      C1136   1.369       .  D
C1136      C1221   1.483       .  S
O1141     Ni1149   1.911       .  S
O1141      C1151   1.281       .  A
O1142      C1152   1.280       .  A
O1143     Ni1149   1.913   1_655  S
O1143      C1153   1.280       .  A
O1144      C1154   1.281       .  A
O1145      C1154   1.281       .  A
O1146     Ni1150   1.919   1_655  S
O1146      C1153   1.282       .  A
O1147      C1152   1.282       .  A
O1148     Ni1150   1.919       .  S
O1148      C1151   1.281       .  A
Ni1149    Ni1150   2.386       .  S
C1151      C1197   1.487       .  S
C1152      C1317   1.477       .  S
C1153      C1341   1.479       .  S
C1154      C1182   1.480       .  S
O1155     Ni1163   1.920       .  S
O1155      C1165   1.283       .  A
O1156      C1166   1.281       .  A
O1157     Ni1163   1.915       .  S
O1157      C1167   1.280       .  A
O1158      C1168   1.281       .  A
O1159      C1168   1.281       .  A
O1160     Ni1164   1.920       .  S
O1160      C1167   1.282       .  A
O1161      C1166   1.282       .  A
O1162     Ni1164   1.922       .  S
O1162      C1165   1.281       .  A
Ni1163    Ni1164   2.385       .  S
C1165      C1293   1.487       .  S
C1166      C1413   1.493       .  S
C1167      C1446   1.477       .  S
C1168      C1278   1.482       .  S
C1169      C1174   1.396       .  A
C1169      H1179   1.084       .  S
C1170      C1175   1.478       .  S
C1170      C1171   1.412       .  A
C1171      C1172   1.401       .  A
C1171      S1176   1.803       .  S
C1172      C1173   1.403       .  A
C1172      H1177   1.084       .  S
C1174      S1178   1.805       .  S
C1175      C1180   1.408       .  A
C1175      C1184   1.401       .  A
S1176      H1192   1.406       .  S
S1178      H1189   1.405       .  S
C1180      C1181   1.400       .  A
C1180      S1185   1.808   1_565  S
C1181      C1182   1.406       .  A
C1181      H1186   1.083   1_565  S
C1182      C1183   1.416       .  A
C1183      C1184   1.400       .  A
C1183      S1187   1.802       .  S
C1184      H1188   1.084       .  S
S1185      H1190   1.407       .  S
S1187      H1191   1.407       .  S
C1193      C1194   1.400       .  A
C1193      C1198   1.405       .  A
C1193      H1203   1.082       .  S
C1194      C1199   1.476       .  S
C1194      C1195   1.409       .  A
C1195      C1196   1.395       .  A
C1196      C1197   1.407       .  A
C1196      H1201   1.083   1_565  S
C1197      C1198   1.419       .  A
C1198      S1202   1.808       .  S
C1199      C1204   1.408       .  A
C1199      C1208   1.401       .  A
S1200      H1216   1.405       .  S
S1202      H1213   1.407       .  S
C1204      C1205   1.401       .  A
C1205      C1206   1.403       .  A
C1206      C1207   1.413       .  A
C1207      C1208   1.398       .  A
C1207      S1211   1.803       .  S
C1208      H1212   1.084       .  S
S1209      H1214   1.407       .  S
S1211      H1215   1.407       .  S
C1217      C1218   1.404       .  A
C1217      C1222   1.401       .  A
C1217      H1227   1.084       .  S
C1218      C1223   1.485       .  S
C1218      C1219   1.414       .  A
C1219      C1220   1.401       .  A
C1219      S1224   1.804       .  S
C1220      C1221   1.404       .  A
C1220      H1225   1.084       .  S
C1221      C1222   1.413       .  A
C1222      S1226   1.803       .  S
C1223      C1228   1.410       .  A
C1223      C1232   1.402       .  A
S1224      H1240   1.405       .  S
S1226      H1237   1.406       .  S
C1228      C1229   1.404       .  A
C1228      S1233   1.807       .  S
C1229      C1230   1.404       .  A
C1229      H1234   1.078       .  S
C1230      C1231   1.418       .  A
C1231      C1232   1.401       .  A
C1231      S1235   1.803       .  S
C1232      H1236   1.084       .  S
S1233      H1238   1.407       .  S
S1235      H1239   1.407       .  S
C1241      C1242   1.399       .  A
C1241      C1246   1.407       .  A
C1241      H1251   1.082       .  S
C1242      C1247   1.483       .  S
C1242      C1243   1.406       .  A
C1243      C1244   1.398       .  A
C1243      S1248   1.807       .  S
C1244      C1245   1.416       .  A
C1244      H1249   1.070       .  S
C1245      C1246   1.426       .  A
C1246      S1250   1.811       .  S
C1247      C1252   1.403       .  A
C1247      C1256   1.398       .  A
S1248      H1264   1.405       .  S
S1250      H1261   1.406       .  S
C1252      C1253   1.402       .  A
C1252      S1257   1.809       .  S
C1253      C1254   1.416       .  A
C1253      H1258   1.070       .  S
C1254      C1255   1.426       .  A
C1255      C1256   1.407       .  A
C1255      S1259   1.810       .  S
C1256      H1260   1.082       .  S
S1257      H1262   1.406       .  S
C1265      C1266   1.402       .  A
C1265      C1270   1.406       .  A
C1265      H1275   1.083       .  S
C1266      C1271   1.481       .  S
C1266      C1267   1.409       .  A
C1267      C1268   1.397       .  A
C1267      S1272   1.805       .  S
C1268      C1269   1.409       .  A
C1268      H1273   1.083       .  S
C1269      C1270   1.416       .  A
C1270      S1274   1.802       .  S
C1271      C1276   1.409       .  A
C1271      C1280   1.402       .  A
S1272      H1288   1.405       .  S
S1274      H1285   1.406       .  S
C1276      C1277   1.402       .  A
C1276      S1281   1.807       .  S
C1277      C1278   1.406       .  A
C1277      H1282   1.083       .  S
C1278      C1279   1.416       .  A
C1279      C1280   1.401       .  A
C1279      S1283   1.803       .  S
C1280      H1284   1.084       .  S
S1281      H1286   1.407       .  S
S1283      H1287   1.408       .  S
C1289      C1290   1.402       .  A
C1289      C1294   1.404       .  A
C1289      H1299   1.084       .  S
C1290      C1295   1.482       .  S
C1290      C1291   1.411       .  A
C1291      C1292   1.399       .  A
C1291      S1296   1.804       .  S
C1292      C1293   1.406       .  A
C1292      H1297   1.084       .  S
C1293      C1294   1.418       .  A
C1294      S1298   1.802       .  S
C1295      C1300   1.409       .  A
C1295      C1304   1.403       .  A
S1296      H1312   1.405       .  S
S1298      H1309   1.408       .  S
C1300      C1301   1.401       .  A
C1300      S1305   1.806       .  S
C1301      C1302   1.403       .  A
C1301      H1306   1.083       .  S
C1302      C1303   1.414       .  A
C1303      C1304   1.404       .  A
C1303      S1307   1.802       .  S
C1304      H1308   1.083       .  S
S1305      H1310   1.407       .  S
S1307      H1311   1.404       .  S
C1313      C1314   1.402       .  A
C1313      C1318   1.398       .  A
C1314      C1319   1.479       .  S
C1314      C1315   1.412       .  A
C1315      C1316   1.401       .  A
C1315      S1320   1.804       .  S
C1316      C1317   1.405       .  A
C1316      H1321   1.083       .  S
C1317      C1318   1.414       .  A
C1319      C1324   1.409       .  A
S1320      H1336   1.406       .  S
S1322      H1333   1.407       .  S
C1324      C1325   1.402       .  A
C1324      S1329   1.806       .  S
C1325      C1326   1.402       .  A
C1325      H1330   1.083       .  S
C1327      C1328   1.399       .  A
C1327      S1331   1.804       .  S
C1328      H1332   1.084       .  S
S1329      H1334   1.407       .  S
S1331      H1335   1.403       .  S
C1337      H1347   1.084       .  S
C1338      C1343   1.480       .  S
C1338      C1339   1.411       .  A
C1339      C1340   1.400       .  A
C1339      S1344   1.803       .  S
C1340      C1341   1.405       .  A
C1340      H1345   1.084       .  S
C1341      C1342   1.416       .  A
C1343      C1348   1.408       .  A
C1343      C1352   1.401       .  A
S1344      H1360   1.406       .  S
S1346      H1357   1.407       .  S
C1348      C1349   1.402       .  A
C1348      S1353   1.807       .  S
C1349      C1350   1.405       .  A
C1349      H1354   1.080       .  S
C1350      C1351   1.417       .  A
C1351      C1352   1.399       .  A
S1353      H1358   1.407       .  S
S1355      H1359   1.407       .  S
C1361      C1362   1.401       .  A
C1361      C1366   1.400       .  A
C1361      H1371   1.084       .  S
C1362      C1367   1.487       .  S
C1362      C1363   1.411       .  A
C1363      C1364   1.398       .  A
C1363      S1368   1.805       .  S
C1364      C1365   1.412       .  A
C1364      H1369   1.081       .  S
C1365      C1366   1.426       .  A
C1366      S1370   1.805       .  S
C1367      C1372   1.413       .  A
C1367      C1376   1.402       .  A
S1368      H1384   1.407       .  S
S1370      H1381   1.403       .  S
C1372      C1373   1.405       .  A
C1372      S1377   1.807       .  S
C1373      C1374   1.405       .  A
C1373      H1378   1.082       .  S
C1374      C1375   1.417       .  A
C1375      C1376   1.396       .  A
C1375      S1379   1.805       .  S
C1376      H1380   1.084       .  S
S1377      H1382   1.407       .  S
S1379      H1383   1.407       .  S
C1385      C1386   1.399       .  A
C1385      C1390   1.402       .  A
C1385      H1395   1.083       .  S
C1386      C1391   1.481       .  S
C1386      C1387   1.406       .  A
C1387      C1388   1.397       .  A
C1387      S1392   1.805       .  S
C1388      C1389   1.415       .  A
C1388      H1393   1.077       .  S
C1389      C1390   1.425       .  A
C1390      S1394   1.810       .  S
C1391      C1396   1.408       .  A
C1391      C1400   1.402       .  A
S1392      H1408   1.406       .  S
S1394      H1405   1.406       .  S
C1396      C1397   1.400       .  A
C1396      S1401   1.807       .  S
C1397      C1398   1.406       .  A
C1397      H1402   1.083       .  S
C1398      C1399   1.413       .  A
C1399      C1400   1.403       .  A
C1399      S1403   1.802       .  S
C1400      H1404   1.083       .  S
S1401      H1406   1.407       .  S
S1403      H1407   1.407       .  S
C1409      C1410   1.401       .  A
C1409      C1414   1.401       .  A
C1409      H1419   1.084       .  S
C1410      C1415   1.484       .  S
C1410      C1411   1.412       .  A
C1411      C1412   1.400       .  A
C1411      S1416   1.805       .  S
C1412      C1413   1.409       .  A
C1412      H1417   1.083       .  S
C1413      C1414   1.420       .  A
C1414      S1418   1.801       .  S
C1415      C1420   1.408       .  A
C1415      C1424   1.401       .  A
S1416      H1432   1.406       .  S
S1418      H1429   1.408       .  S
C1420      C1421   1.403       .  A
C1420      S1425   1.807       .  S
C1421      C1422   1.408       .  A
C1421      H1426   1.082       .  S
C1422      C1423   1.418       .  A
C1423      C1424   1.404       .  A
C1423      S1427   1.805       .  S
C1424      H1428   1.082       .  S
S1425      H1430   1.407       .  S
S1427      H1431   1.406       .  S
C1433      C1434   1.400       .  A
C1433      C1438   1.396       .  A
C1433      H1443   1.084       .  S
C1434      C1439   1.479       .  S
C1434      C1435   1.414       .  A
C1435      C1436   1.401       .  A
C1435      S1440   1.804       .  S
C1436      C1437   1.403       .  A
C1436      H1441   1.084       .  S
C1437      C1438   1.414       .  A
C1438      S1442   1.803       .  S
C1439      C1444   1.410       .  A
C1439      C1448   1.402       .  A
S1440      H1456   1.405       .  S
S1442      H1453   1.405       .  S
C1444      C1445   1.404       .  A
C1444      S1449   1.807       .  S
C1445      C1446   1.405       .  A
C1445      H1450   1.083       .  S
C1446      C1447   1.414       .  A
C1447      C1448   1.398       .  A
C1447      S1451   1.803       .  S
C1448      H1452   1.084       .  S
S1449      H1454   1.407       .  S
S1451      H1455   1.407       .  S
