geometry optimzed in LAMMPS
_audit_creation_date              2020-11-30 
_audit_creation_method            'lammps2cif' 
_symmetry_space_group_name_H-M    'P1' 
_symmetry_Int_Tables_number       1 
_symmetry_cell_setting            triclinic 
loop_ 
_symmetry_equiv_pos_as_xyz 
  x,y,z 
_cell_length_a                    42.13299984 
_cell_length_b                    42.04329300728603 
_cell_length_c                    35.06209705425446 
_cell_angle_alpha                 89.83839702311117 
_cell_angle_beta                  89.99135511340539 
_cell_angle_gamma                 119.79285970982218 
loop_ 
_atom_site_label 
_atom_site_type_symbol 
_atom_site_fract_x 
_atom_site_fract_y 
_atom_site_fract_z 
_atom_site_charge 
C1          C  0.43506005  0.23535368  0.12045117     0.03800
C2          C  0.43710038  0.22088184  0.08515468    -0.12300
C3          C  0.44132407  0.18988242  0.08366699     0.01300
C4          C  0.44359632  0.17352379  0.11766141    -0.10800
C5          C  0.44232816  0.18835798  0.15308066     0.03800
C6          C  0.43729756  0.21887163  0.15432408    -0.10300
H7          H  0.43690775  0.23455664  0.05900160     0.09400
H8          H  0.44827840  0.15036009  0.11651104     0.07000
H9          H  0.43733154  0.23107640  0.18146341     0.06800
C10         C  0.28281349  0.88264104  0.37665057     0.03800
C11         C  0.26699473  0.86470076  0.34252509    -0.12300
C12         C  0.23383870  0.83137372  0.34271558     0.01300
C13         C  0.21685390  0.81585284  0.37773405    -0.10800
C14         C  0.23197411  0.83405066  0.41226634     0.03800
C15         C  0.26461086  0.86803585  0.41118065    -0.10300
H16         H  0.28082027  0.87651370  0.31578110     0.09400
H17         H  0.19342151  0.78852183  0.37814589     0.07000
H18         H  0.27694129  0.88239872  0.43746601     0.06800
C19         C  0.88810477  0.19743429  0.12909551     0.03800
C20         C  0.90443695  0.21619178  0.09515292    -0.12300
C21         C  0.93458996  0.25167469  0.09616093     0.01300
C22         C  0.94794807  0.26895358  0.13131136    -0.10800
C23         C  0.93150025  0.25084769  0.16558443     0.03800
C24         C  0.90240274  0.21471547  0.16424791    -0.10300
H25         H  0.89254492  0.20421512  0.06788782     0.09400
H26         H  0.97012508  0.29710943  0.13186019     0.07000
H27         H  0.89008884  0.20034550  0.19059223     0.06800
C28         C  0.72970183  0.84316721  0.37074626     0.03800
C29         C  0.72744574  0.86027292  0.33731333    -0.12300
C30         C  0.72675506  0.89339367  0.33878942     0.01300
C31         C  0.72875416  0.90952653  0.37447587    -0.10800
C32         C  0.73174581  0.89312348  0.40833872     0.03800
C33         C  0.73271135  0.86019714  0.40599596    -0.10300
H34         H  0.72567251  0.84745509  0.31003473     0.09400
H35         H  0.72516329  0.93321672  0.37610282     0.07000
H36         H  0.73424679  0.84689382  0.43190824     0.06800
C37         C  0.92565021  0.68293785  0.12561391     0.03800
C38         C  0.90700898  0.68140709  0.09169117    -0.12300
C39         C  0.87431533  0.68286272  0.09251205     0.01300
C40         C  0.86007152  0.68514806  0.12826492    -0.10800
C41         C  0.87713006  0.68440428  0.16233729     0.03800
C42         C  0.91033304  0.68446898  0.16072792    -0.10300
H43         H  0.91658046  0.67648339  0.06498268     0.09400
H44         H  0.83418994  0.68473274  0.12982037     0.07000
H45         H  0.92337343  0.68403349  0.18722093     0.06800
C46         C  0.24216972  0.40086834  0.37328757     0.03800
C47         C  0.25871733  0.40005045  0.40774693    -0.12300
C48         C  0.29375110  0.40424041  0.40787105     0.01300
C49         C  0.31176729  0.40754057  0.37325751    -0.10800
C50         C  0.29495828  0.40701769  0.33851937     0.03800
C51         C  0.26007214  0.40341974  0.33865369    -0.10300
H52         H  0.24507814  0.39775598  0.43462862     0.09400
H53         H  0.33934498  0.41182882  0.37342070     0.07000
H54         H  0.24783864  0.40473165  0.31192157     0.06800
Zn55       Zn  0.05034523  0.40938091  0.42351984     1.49700
Zn56       Zn  0.01235386  0.44888804  0.38037251     1.49400
Zn57       Zn  0.04773711  0.40990821  0.33248245     1.49100
Zn58       Zn  0.97491443  0.36177505  0.37988120     1.49500
O59         O  0.02130401  0.40742109  0.37914699    -1.83400
O60         O  0.06866657  0.45715053  0.45241230    -0.74000
O61         O  0.03544733  0.48270322  0.33570495    -0.73900
O62         O  0.09202511  0.40527878  0.34318172    -0.73400
O63         O  0.03678078  0.47997278  0.42526992    -0.74100
O64         O  0.09365003  0.40505130  0.40659458    -0.73700
O65         O  0.06301889  0.45727261  0.30443143    -0.74200
O66         O  0.96855666  0.33127052  0.33241697    -0.73600
O67         O  0.95863310  0.43328789  0.38310786    -0.74400
O68         O  0.01722849  0.36837706  0.29762390    -0.73800
O69         O  0.93402986  0.37295259  0.38077443    -0.74200
O70         O  0.96844289  0.33359330  0.42897142    -0.74200
O71         O  0.02016815  0.36811403  0.46049578    -0.73900
C72         C  0.05937551  0.48169361  0.45030936     0.77800
C73         C  0.05572977  0.48307088  0.30863883     0.78300
C74         C  0.10667343  0.40361699  0.37424856     0.77300
C75         C  0.98722546  0.33855223  0.30169090     0.77700
C76         C  0.93066808  0.40135782  0.38295961     0.78800
C77         C  0.98810869  0.34036148  0.45875601     0.77900
Zn78       Zn  0.11986243  0.67437050  0.08273478     1.49700
Zn79       Zn  0.19380924  0.72384615  0.12808799     1.49400
Zn80       Zn  0.11933496  0.67283003  0.17368111     1.49100
Zn81       Zn  0.15847191  0.63697545  0.12742402     1.49500
O82         O  0.14776615  0.67701233  0.12804026    -1.83400
O83         O  0.14946586  0.71775557  0.04840218    -0.74000
O84         O  0.19975984  0.75180481  0.17624071    -0.73900
O85         O  0.07180951  0.67139012  0.16087692    -0.73400
O86         O  0.19981912  0.75390696  0.08108196    -0.74100
O87         O  0.07338255  0.67361397  0.09749963    -0.73700
O88         O  0.14922053  0.71507137  0.20891230    -0.74200
O89         O  0.13386518  0.60156713  0.17082865    -0.73600
O90         O  0.23676560  0.71630808  0.12786566    -0.74400
O91         O  0.10628194  0.62664809  0.20252582    -0.73800
O92         O  0.21272071  0.65601188  0.12983796    -0.74200
O93         O  0.13885478  0.60723679  0.08014372    -0.74200
O94         O  0.10681247  0.62913970  0.05160455    -0.73900
C95         C  0.18044015  0.74686464  0.05111044     0.77800
C96         C  0.18043826  0.74394747  0.20637349     0.78300
C97         C  0.05762209  0.67207906  0.12903349     0.77300
C98         C  0.11374399  0.60103827  0.19815776     0.77700
C99         C  0.24044902  0.68817671  0.12925882     0.78800
C100        C  0.11765774  0.60580810  0.05354571     0.77900
Zn101      Zn  0.46259797  0.10062866  0.37038369     1.49700
Zn102      Zn  0.53849090  0.12849391  0.32634849     1.49400
Zn103      Zn  0.53673927  0.12610673  0.41640338     1.49100
Zn104      Zn  0.50531201  0.05305536  0.36833243     1.49500
O105        O  0.51021517  0.10171711  0.37062284    -1.83400
O106        O  0.45536105  0.12347326  0.32114228    -0.74000
O107        O  0.57959098  0.17724292  0.33985356    -0.73900
O108        O  0.50583371  0.13739071  0.45134896    -0.73400
O109        O  0.50711695  0.13754124  0.29136679    -0.74100
O110        O  0.45597760  0.12479348  0.41813090    -0.73700
O111        O  0.57998262  0.17425070  0.40296696    -0.74200
O112        O  0.53489685  0.04578119  0.41030517    -0.73600
O113        O  0.55992901  0.10247877  0.29727553    -0.74400
O114        O  0.55553434  0.09677828  0.44427511    -0.73800
O115        O  0.52651301  0.04575048  0.31930962    -0.74200
O116        O  0.45128389  0.01546148  0.37272596    -0.74200
O117        O  0.42264219  0.04800946  0.37291835    -0.73900
C118        C  0.47616087  0.13588301  0.29190538     0.77800
C119        C  0.59332480  0.19129674  0.37182629     0.78300
C120        C  0.47543563  0.13683347  0.44818492     0.77300
C121        C  0.55340942  0.06593882  0.43812793     0.77700
C122        C  0.55035376  0.06868805  0.29623981     0.78800
C123        C  0.42192307  0.01736809  0.37406830     0.77900
Zn124      Zn  0.60857831  0.96952918  0.11724371     1.49700
Zn125      Zn  0.65944102  0.93283613  0.12203918     1.49400
Zn126      Zn  0.68627462  0.00718792  0.07543781     1.49100
Zn127      Zn  0.68110579  0.00747374  0.16630826     1.49500
O128        O  0.65895034  0.97927995  0.12017786    -1.83400
O129        O  0.57307506  0.91522810  0.11411490    -0.74000
O130        O  0.68481836  0.92612741  0.07617043    -0.73900
O131        O  0.65645812  0.02347026  0.04358465    -0.73400
O132        O  0.60867556  0.89060922  0.11982810    -0.74100
O133        O  0.60213747  0.99536493  0.07224991    -0.73700
O134        O  0.69907962  0.97617133  0.04218147    -0.74200
O135        O  0.72846031  0.05334551  0.15453842    -0.73600
O136        O  0.67975931  0.92681148  0.17199616    -0.74400
O137        O  0.73344519  0.05176899  0.09149262    -0.73800
O138        O  0.69165604  0.97730091  0.20371625    -0.74200
O139        O  0.64765256  0.02225346  0.19216611    -0.74200
O140        O  0.59481514  0.98970304  0.16225405    -0.73900
C141        C  0.57714564  0.88718519  0.11629739     0.77800
C142        C  0.69748239  0.94524278  0.04592621     0.78300
C143        C  0.62331082  0.01616616  0.04615314     0.77300
C144        C  0.74598014  0.06686313  0.12365931     0.77700
C145        C  0.69000251  0.94622473  0.20213684     0.78800
C146        C  0.61382410  0.01193577  0.18838971     0.77900
C147        C  0.71822029  0.33524147  0.38247825     0.80900
N148        N  0.75254311  0.34069888  0.38701703    -0.77400
C149        C  0.78174002  0.37516772  0.38712080     0.83400
N150        N  0.77591474  0.40404544  0.38317468    -0.77300
C151        C  0.74165831  0.39874859  0.37833060     0.83500
N152        N  0.71287530  0.36424333  0.37766350    -0.79000
C153        C  0.44814602  0.74240759  0.12165485     0.80900
N154        N  0.45284383  0.71271313  0.12216685    -0.77400
C155        C  0.42415191  0.67848597  0.12768178     0.83400
N156        N  0.38999846  0.67370843  0.13209916    -0.77300
C157        C  0.38473885  0.70312194  0.13121714     0.83500
N158        N  0.41401125  0.73724933  0.12613498    -0.79000
Zn159      Zn  0.39990797  0.41938999  0.12300411     1.49700
Zn160      Zn  0.45107562  0.49462108  0.07700983     1.49400
Zn161      Zn  0.45275390  0.49516489  0.16624404     1.49100
Zn162      Zn  0.48907966  0.45674304  0.12163757     1.49500
O163        O  0.44793593  0.46606927  0.12191198    -1.83400
O164        O  0.37035875  0.41311047  0.07458726    -0.74000
O165        O  0.44932602  0.54081968  0.08930649    -0.73900
O166        O  0.41064328  0.46594759  0.20073089    -0.73400
O167        O  0.40861919  0.46385956  0.04314809    -0.74100
O168        O  0.37013732  0.41574157  0.17059679    -0.73700
O169        O  0.45020114  0.54039657  0.15253794    -0.74200
O170        O  0.52376925  0.48017708  0.16618492    -0.73600
O171        O  0.49739830  0.50934570  0.04796194    -0.74400
O172        O  0.49939928  0.50973432  0.19535225    -0.73800
O173        O  0.52161747  0.47888131  0.07558393    -0.74200
O174        O  0.46866158  0.40228475  0.12266300    -0.74200
O175        O  0.40808009  0.37601026  0.12472745    -0.73900
C176        C  0.37877071  0.43339127  0.04495682     0.77800
C177        C  0.44864333  0.55488348  0.12116470     0.78300
C178        C  0.37978757  0.43657702  0.19972821     0.77300
C179        C  0.52457097  0.50145422  0.19238822     0.77700
C180        C  0.52238977  0.50075338  0.04997561     0.78800
C181        C  0.43705491  0.37366903  0.12397873     0.77900
Zn182      Zn  0.71342921  0.58260887  0.41997976     1.49700
Zn183      Zn  0.76359089  0.65730749  0.37524813     1.49400
Zn184      Zn  0.71553758  0.58113625  0.33057598     1.49100
Zn185      Zn  0.67469805  0.61830093  0.37221060     1.49500
O186        O  0.71697415  0.61042879  0.37427151    -1.83400
O187        O  0.75268958  0.61264997  0.45654093    -0.74000
O188        O  0.79382030  0.66203845  0.32734324    -0.73900
O189        O  0.71910942  0.53719230  0.34639445    -0.73400
O190        O  0.79223696  0.66214625  0.42454456    -0.74100
O191        O  0.71924581  0.53887814  0.40957206    -0.73700
O192        O  0.75836720  0.61026099  0.29600073    -0.74200
O193        O  0.64077400  0.59007840  0.32803953    -0.73600
O194        O  0.75337693  0.69984457  0.37467181    -0.74400
O195        O  0.66871620  0.56285166  0.30098441    -0.73800
O196        O  0.69286427  0.67331807  0.36918793    -0.74200
O197        O  0.64232081  0.59707355  0.41891386    -0.74200
O198        O  0.66633624  0.56660372  0.44713734    -0.73900
C199        C  0.78277575  0.64257357  0.45487461     0.77800
C200        C  0.78747695  0.64121987  0.29845208     0.78300
C201        C  0.72106278  0.52429528  0.37857885     0.77300
C202        C  0.64169270  0.56841916  0.30319112     0.77700
C203        C  0.72437990  0.70210881  0.37160895     0.78800
C204        C  0.64162907  0.57551743  0.44492876     0.77900
C205        C  0.61919685  0.54471253  0.23809220    -0.11600
C206        C  0.61119892  0.54957857  0.27567147     0.05400
C207        C  0.57434289  0.53623612  0.28591580    -0.06800
C208        C  0.54672660  0.52053133  0.25841805    -0.07600
C209        C  0.55480737  0.51670227  0.22055788    -0.02100
C210        C  0.59149677  0.52840830  0.21068061     0.04700
N211        N  0.60184826  0.52725690  0.17231585     0.67200
H212        H  0.64726919  0.55464004  0.22956613     0.16100
H213        H  0.51865410  0.51058578  0.26696377     0.15800
N214        N  0.56393874  0.53552061  0.32462312     0.74900
O215        O  0.61430674  0.55616754  0.15261891    -0.38600
O216        O  0.60944341  0.50283463  0.16295368    -0.38500
O217        O  0.55147909  0.55601136  0.33460564    -0.39200
O218        O  0.55660716  0.50757281  0.34442827    -0.39300
C219        C  0.61900160  0.54970482  0.50937051    -0.11600
C220        C  0.61196251  0.56026788  0.47371209     0.05400
C221        C  0.57629775  0.54989390  0.96171448    -0.06800
C222        C  0.54796712  0.53220846  0.98824005    -0.07600
C223        C  0.55293094  0.51725108  0.02205774    -0.02100
C224        C  0.59136431  0.53253467  0.53673057     0.04700
N225        N  0.60057406  0.52378358  0.57296682     0.67200
H226        H  0.64615951  0.55475134  0.51615412     0.16100
H227        H  0.52167758  0.52962405  0.98184181     0.15800
N228        N  0.56813132  0.56051040  0.92606753     0.74900
O229        O  0.60252259  0.49492574  0.57644669    -0.38600
O230        O  0.61819596  0.52861021  0.08549318    -0.38500
O231        O  0.54507065  0.53510965  0.40947349    -0.39200
O232        O  0.56810858  0.59045168  0.92367986    -0.39300
C233        C  0.45327095  0.64580733  0.09817467    -0.11600
C234        C  0.43030986  0.64684904  0.12658853     0.05400
C235        C  0.41414768  0.61789274  0.15318205    -0.06800
C236        C  0.42123720  0.58878754  0.15108363    -0.07600
C237        C  0.44366910  0.58733551  0.12236031    -0.02100
C238        C  0.45965461  0.61618687  0.09550076     0.04700
N239        N  0.48314598  0.61646312  0.06596708     0.67200
H240        H  0.46587771  0.66782688  0.07752822     0.16100
H241        H  0.40862177  0.56686521  0.17183086     0.15800
N242        N  0.39112897  0.61777887  0.18311495     0.74900
O243        O  0.47008487  0.60524077  0.03318122    -0.38600
O244        O  0.51731069  0.63621843  0.06976868    -0.38500
O245        O  0.35782628  0.59338774  0.18309101    -0.39200
O246        O  0.40555075  0.63404211  0.21388250    -0.39300
C247        C  0.75462906  0.45840153  0.40399373    -0.11600
C248        C  0.73570418  0.43038150  0.37746817     0.05400
C249        C  0.71104648  0.43288316  0.35204321    -0.06800
C250        C  0.70678106  0.46382945  0.35284911    -0.07600
C251        C  0.72561598  0.49176847  0.37958708    -0.02100
C252        C  0.74932415  0.48859835  0.40574976     0.04700
N253        N  0.76903376  0.51616736  0.43365170     0.67200
H254        H  0.77316112  0.45652731  0.42404101     0.16100
H255        H  0.68838690  0.46585379  0.33273114     0.15800
N256        N  0.69086457  0.40492929  0.32461250     0.74900
O257        O  0.75645567  0.51168225  0.46711549    -0.38600
O258        O  0.80228228  0.53914350  0.42778602    -0.38500
O259        O  0.65760826  0.38231334  0.33102080    -0.39200
O260        O  0.70281047  0.40903976  0.29090562    -0.39300
C261        C  0.50966450  0.84641454  0.11222958    -0.11600
C262        C  0.54448620  0.84992732  0.11534136     0.05400
C263        C  0.54701483  0.81770436  0.11856892    -0.06800
C264        C  0.51535142  0.78347497  0.11954021    -0.07600
C265        C  0.48042744  0.77985642  0.11769259    -0.02100
C266        C  0.47785286  0.81205922  0.11338790     0.04700
N267        N  0.44350185  0.81092689  0.11021104     0.67200
H268        H  0.50684773  0.87053534  0.10941240     0.16100
H269        H  0.51847779  0.75956866  0.12264878     0.15800
N270        N  0.58132291  0.81880723  0.12199429     0.74900
O271        O  0.42973609  0.81656535  0.13960548    -0.38600
O272        O  0.43319558  0.81533847  0.07780717    -0.38500
O273        O  0.59119882  0.81377432  0.15434560    -0.39200
O274        O  0.59597605  0.81451505  0.09254930    -0.39300
C275        C  0.64974044  0.23643702  0.40406926    -0.11600
C276        C  0.62575105  0.22795385  0.37319146     0.05400
C277        C  0.63306054  0.25480146  0.34499731    -0.06800
C278        C  0.66331650  0.28974060  0.34895328    -0.07600
C279        C  0.68703068  0.29814520  0.37997329    -0.02100
C280        C  0.68039601  0.27113929  0.40753405     0.04700
N281        N  0.70348034  0.27871843  0.44001263     0.67200
H282        H  0.64467809  0.21608332  0.42575278     0.16100
H283        H  0.66851776  0.31031507  0.32747277     0.15800
N284        N  0.60976311  0.24753527  0.31271199     0.74900
O285        O  0.69678848  0.29129004  0.46967933    -0.38600
O286        O  0.72232611  0.26308834  0.44284331    -0.38500
O287        O  0.58734999  0.25919324  0.31247899    -0.39200
O288        O  0.61790537  0.23818995  0.28167402    -0.39300
C289        C  0.57356077  0.06172932  0.00279591    -0.11600
C290        C  0.57211151  0.05327398  0.46487698     0.05400
C291        C  0.59424464  0.03873445  0.45250211    -0.06800
C292        C  0.61137830  0.02740660  0.47943409    -0.07600
C293        C  0.60850853  0.03159096  0.01809252    -0.02100
C294        C  0.58972964  0.04980156  0.02988517     0.04700
N295        N  0.58736509  0.05704287  0.06926779     0.67200
H296        H  0.55930155  0.07567338  0.01240952     0.16100
H297        H  0.62795452  0.01600351  0.46964788     0.15800
N298        N  0.60090336  0.03668760  0.41287508     0.74900
O299        O  0.61006249  0.08788753  0.08278748    -0.38600
O300        O  0.55822692  0.03685913  0.08737981    -0.38500
O301        O  0.62938849  0.06228775  0.39776026    -0.39200
O302        O  0.58400654  0.00622085  0.39609917    -0.39300
C303        C  0.61902444  0.06054423  0.23245425    -0.11600
C304        C  0.59670086  0.02666818  0.21470419     0.05400
C305        C  0.55876657  0.00788795  0.22264103    -0.06800
C306        C  0.54448497  0.02195986  0.24955713    -0.07600
C307        C  0.56687713  0.05553026  0.26757610    -0.02100
C308        C  0.60441856  0.07540349  0.25807454     0.04700
N309        N  0.62841302  0.11018601  0.27486121     0.67200
H310        H  0.64799026  0.07584389  0.22619544     0.16100
H311        H  0.51553179  0.00682462  0.25589213     0.15800
N312        N  0.53419349  0.97449565  0.20380806     0.74900
O313        O  0.64753163  0.11168506  0.30322567    -0.38600
O314        O  0.63737268  0.13897273  0.25585441    -0.38500
O315        O  0.52285850  0.94443197  0.22115731    -0.39200
O316        O  0.51738267  0.97569501  0.17453866    -0.39300
C317        C  0.28165896  0.66321055  0.14285327    -0.11600
C318        C  0.27761324  0.69281983  0.13074037     0.05400
C319        C  0.30921780  0.72591367  0.12036206    -0.06800
C320        C  0.34337608  0.72832852  0.12135651    -0.07600
C321        C  0.34752960  0.69865180  0.13291131    -0.02100
C322        C  0.31606127  0.66585234  0.14422150     0.04700
N323        N  0.31823676  0.63521375  0.15843023     0.67200
H324        H  0.25803897  0.63781561  0.15173533     0.16100
H325        H  0.36667459  0.75369367  0.11204710     0.15800
N326        N  0.30751103  0.75688621  0.10625837     0.74900
O327        O  0.31958324  0.63164780  0.19403959    -0.38600
O328        O  0.30796052  0.60753357  0.13734683    -0.38500
O329        O  0.31202238  0.78176654  0.12933511    -0.39200
O330        O  0.31468184  0.76503927  0.07150969    -0.39300
C331        C  0.86405458  0.36046391  0.39204361    -0.11600
C332        C  0.89319125  0.39615041  0.38594706     0.05400
C333        C  0.88540774  0.42511028  0.38308026    -0.06800
C334        C  0.84911584  0.41759634  0.38448676    -0.07600
C335        C  0.81979793  0.38160277  0.38903287    -0.02100
C336        C  0.82789053  0.35294258  0.39373491     0.04700
N337        N  0.80019724  0.31595802  0.40094687     0.67200
H338        H  0.86913606  0.33782062  0.39552647     0.16100
H339        H  0.84407445  0.44028104  0.38135759     0.15800
N340        N  0.91365515  0.46229076  0.37812143     0.74900
O341        O  0.78735343  0.29402299  0.37329075    -0.38600
O342        O  0.79738115  0.30320885  0.43417283    -0.38500
O343        O  0.91994362  0.47627180  0.34516850    -0.39200
O344        O  0.92480748  0.48310676  0.40677454    -0.39300
C345        C  0.11548060  0.54885586  0.03040125    -0.11600
C346        C  0.10507638  0.57565153  0.02528219     0.05400
C347        C  0.08225787  0.57207460  0.99415224    -0.06800
C348        C  0.06692008  0.54178033  0.47000506    -0.07600
C349        C  0.07491163  0.51346040  0.47669728    -0.02100
C350        C  0.09705729  0.51645544  0.50821311     0.04700
N351        N  0.11393574  0.49209095  0.01376503     0.67200
H352        H  0.13305780  0.55085457  0.05382319     0.16100
H353        H  0.05029630  0.54051578  0.44593663     0.15800
N354        N  0.06984200  0.59929912  0.48581758     0.74900
O355        O  0.14479796  0.49810332  0.00218147    -0.38600
O356        O  0.08788329  0.46521974  0.54247250    -0.38500
O357        O  0.08684243  0.62260282  0.45996036    -0.39200
O358        O  0.03970966  0.59168206  0.99882151    -0.39300
C359        C  0.07611164  0.50664363  0.24312245    -0.11600
C360        C  0.07078998  0.51371245  0.28097235     0.05400
C361        C  0.07998261  0.54972616  0.29135574    -0.06800
C362        C  0.09365285  0.57756498  0.26382057    -0.07600
C363        C  0.09898054  0.57048190  0.22594537    -0.02100
C364        C  0.09004618  0.53453642  0.21567040     0.04700
N365        N  0.09346557  0.52539525  0.17724705     0.67200
H366        H  0.06889629  0.47917016  0.23458618     0.16100
H367        H  0.10092612  0.60505381  0.27236550     0.15800
N368        N  0.07775675  0.55910126  0.33004356     0.74900
O369        O  0.12077813  0.52234260  0.16803562    -0.38600
O370        O  0.06568118  0.51172518  0.15595048    -0.38500
O371        O  0.10599419  0.57200778  0.35064791    -0.39200
O372        O  0.05124058  0.56311131  0.34024839    -0.39300
C373        C  0.17893507  0.37816975  0.34904175    -0.11600
C374        C  0.20734964  0.40148097  0.37353622     0.05400
C375        C  0.20237818  0.42572320  0.39732505    -0.06800
C376        C  0.16898045  0.42507034  0.39754268    -0.07600
C377        C  0.14063651  0.40183957  0.37319792    -0.02100
C378        C  0.14590296  0.37857264  0.34825673     0.04700
N379        N  0.11798519  0.35485288  0.32242352     0.67200
H380        H  0.18238915  0.35959676  0.33044811     0.16100
H381        H  0.16569926  0.44395175  0.41583829     0.15800
N382        N  0.23176144  0.45316419  0.41924970     0.74900
O383        O  0.12035603  0.36417375  0.28784443    -0.38600
O384        O  0.09739120  0.32171867  0.33155901    -0.38500
O385        O  0.25181169  0.48430371  0.40449654    -0.39200
O386        O  0.23144297  0.44970967  0.45502984    -0.39300
C387        C  0.35733841  0.45397984  0.48933068    -0.11600
C388        C  0.35402212  0.42265469  0.01141189     0.04800
C389        C  0.32701837  0.38610875  0.00295030    -0.06800
C390        C  0.31034198  0.38193590  0.46649032    -0.07600
C391        C  0.31375092  0.41112927  0.44409492    -0.02100
C392        C  0.33686292  0.44728608  0.45613148     0.04700
N393        N  0.33981258  0.47766981  0.43488663     0.67200
H394        H  0.37515525  0.48214943  0.49769019     0.16100
H395        H  0.29242533  0.35402549  0.45739143     0.15800
N396        N  0.32074475  0.35633367  0.02745474     0.74900
O397        O  0.31877191  0.49001509  0.44281490    -0.38600
O398        O  0.36846785  0.49729512  0.41587519    -0.38500
O399        O  0.29276328  0.34212099  0.04856991    -0.39200
O400        O  0.33737646  0.33887852  0.02103664    -0.39300
C401        C  0.36697821  0.45446464  0.26252075    -0.11600
C402        C  0.35569769  0.42772080  0.23381198     0.05400
C403        C  0.32292623  0.39399603  0.23943631    -0.06800
C404        C  0.30313840  0.38763404  0.27363161    -0.07600
C405        C  0.31546756  0.41429914  0.30237964    -0.02100
C406        C  0.34733926  0.44810381  0.29626103     0.04700
N407        N  0.35996457  0.47676720  0.32380561     0.67200
H408        H  0.39140711  0.48085583  0.25905298     0.16100
H409        H  0.27835476  0.36168659  0.27794636     0.15800
N410        N  0.30938096  0.36585983  0.21120944     0.74900
O411        O  0.38746687  0.48347766  0.34381615    -0.38600
O412        O  0.35062590  0.50089155  0.32057326    -0.38500
O413        O  0.31429661  0.33880346  0.21545463    -0.39200
O414        O  0.28544779  0.36356276  0.18800083    -0.39300
C415        C  0.96244424  0.65613206  0.15212926    -0.11600
C416        C  0.95906208  0.67916675  0.12513131     0.05400
C417        C  0.98791775  0.69840660  0.09888693    -0.06800
C418        C  0.01897447  0.69452531  0.10019261    -0.07600
C419        C  0.02293236  0.67284104  0.12809685    -0.02100
C420        C  0.99422197  0.65340538  0.15433221     0.04700
N421        N  0.99653777  0.63049129  0.18310329     0.67200
H422        H  0.94041999  0.64027476  0.17191475     0.16100
H423        H  0.04092898  0.70998518  0.08016868     0.15800
N424        N  0.98748539  0.72382803  0.07212750     0.74900
O425        O  0.00642839  0.64308554  0.21629057    -0.38600
O426        O  0.98013051  0.59624995  0.17820117    -0.38500
O427        O  0.00064548  0.75685023  0.08196610    -0.39200
O428        O  0.98493162  0.71623017  0.03708841    -0.39300
C429        C  0.84369398  0.64018177  0.21418478    -0.11600
C430        C  0.85671912  0.67540953  0.19893619     0.05400
C431        C  0.84886830  0.70012006  0.21809146    -0.06800
C432        C  0.82784205  0.68915219  0.25169360    -0.07600
C433        C  0.81358965  0.65339996  0.26608579    -0.02100
C434        C  0.82205443  0.62890813  0.24716986     0.04700
N435        N  0.80922876  0.59257338  0.26123901     0.67200
H436        H  0.84963613  0.62098456  0.19982912     0.16100
H437        H  0.82145914  0.70817128  0.26571077     0.15800
N438        N  0.86187229  0.73633452  0.20379635     0.74900
O439        O  0.78102922  0.56623228  0.24673946    -0.38600
O440        O  0.83036740  0.58597436  0.28094634    -0.38500
O441        O  0.84019676  0.74352680  0.18592125    -0.39200
O442        O  0.89127055  0.76228277  0.21677581    -0.39300
C443        C  0.81404823  0.65088806  0.05959685    -0.11600
C444        C  0.85175246  0.67565203  0.05716883     0.05400
C445        C  0.86662732  0.69104785  0.02100957    -0.06800
C446        C  0.84395265  0.68109112  0.48549233    -0.07600
C447        C  0.80692938  0.65419474  0.48905341    -0.02100
C448        C  0.79141682  0.64135779  0.02760680     0.04700
N449        N  0.75303305  0.61759672  0.03316585     0.67200
H450        H  0.80178609  0.63810263  0.08655056     0.16100
H451        H  0.85479636  0.69347966  0.45799310     0.15800
N452        N  0.90442646  0.71748178  0.01638986     0.74900
O453        O  0.74055599  0.58345262  0.03537143    -0.38600
O454        O  0.73388024  0.63089220  0.04524603    -0.38500
O455        O  0.92430279  0.70906129  0.99685127    -0.39200
O456        O  0.91336951  0.75312870  0.51455345    -0.39300
C457        C  0.75703899  0.80410442  0.38611167    -0.11600
C458        C  0.72855717  0.80724570  0.36927132     0.05400
C459        C  0.69921579  0.77588473  0.35252649    -0.06800
C460        C  0.69863948  0.74223726  0.35352590    -0.07600
C461        C  0.72705466  0.73888837  0.37057333    -0.02100
C462        C  0.75676828  0.77060710  0.38668679     0.04700
N463        N  0.78642344  0.76935364  0.40496141     0.67200
H464        H  0.77972098  0.82789050  0.39900208     0.16100
H465        H  0.67565114  0.71854796  0.34090719     0.15800
N466        N  0.66893289  0.77716843  0.33581897     0.74900
O467        O  0.81570823  0.77957439  0.38661268    -0.38600
O468        O  0.78700483  0.76809655  0.44090230    -0.38500
O469        O  0.66661335  0.77762986  0.29996012    -0.39200
O470        O  0.64070231  0.76796717  0.35571618    -0.39300
C471        C  0.70145432  0.88149277  0.47180991    -0.11600
C472        C  0.72756480  0.90671992  0.44620677     0.05400
C473        C  0.74639685  0.94423216  0.45614206    -0.06800
C474        C  0.73710631  0.95586655  0.48964916    -0.07600
C475        C  0.71000720  0.93140461  0.01373888    -0.02100
C476        C  0.69353294  0.89373486  0.00498592     0.04700
N477        N  0.66409808  0.86664663  0.02733174     0.67200
H478        H  0.68635160  0.85269098  0.46471555     0.16100
H479        H  0.75120258  0.98479078  0.49628578     0.15800
N480        N  0.77541920  0.97091667  0.43305499     0.74900
O481        O  0.63169546  0.85776391  0.01853265    -0.38600
O482        O  0.66970421  0.84556422  0.04840733    -0.38500
O483        O  0.77088215  0.99473559  0.41582402    -0.39200
O484        O  0.80755085  0.97714564  0.43895281    -0.39300
C485        C  0.68998785  0.88328101  0.28009132    -0.11600
C486        C  0.71877304  0.90791723  0.30347506     0.05400
C487        C  0.73811311  0.94537900  0.29299983    -0.06800
C488        C  0.72835918  0.95722700  0.25986078    -0.07600
C489        C  0.69983779  0.93240348  0.23640868    -0.02100
C490        C  0.68050656  0.89506937  0.24689792     0.04700
N491        N  0.64993286  0.86891432  0.22531755     0.67200
H492        H  0.67409940  0.85468134  0.28805162     0.16100
H493        H  0.74353062  0.98594147  0.25216459     0.15800
N494        N  0.76836106  0.97171261  0.31483475     0.74900
O495        O  0.65381378  0.84697194  0.20398325    -0.38600
O496        O  0.61815345  0.86159983  0.23500068    -0.38500
O497        O  0.80023584  0.97910057  0.30550084    -0.39200
O498        O  0.76434380  0.99444636  0.33469023    -0.39300
C499        C  0.82404537  0.16038530  0.15078493    -0.11600
C500        C  0.85258880  0.16279211  0.12806711     0.05400
C501        C  0.84565824  0.13332941  0.10365822    -0.06800
C502        C  0.81049365  0.10265076  0.10214272    -0.07600
C503        C  0.78217120  0.10028695  0.12522496    -0.02100
C504        C  0.78929404  0.12946977  0.14993943     0.04700
N505        N  0.76125922  0.12902375  0.17323592     0.67200
H506        H  0.82846014  0.18304603  0.16887471     0.16100
H507        H  0.80556441  0.08011466  0.08358302     0.15800
N508        N  0.87415214  0.13318596  0.08163452     0.74900
O509        O  0.75984983  0.12090611  0.20810358    -0.38600
O510        O  0.74537460  0.14609131  0.16205309    -0.38500
O511        O  0.89101460  0.11798196  0.09529131    -0.39200
O512        O  0.87524997  0.13858388  0.04611497    -0.39300
C513        C  0.93525231  0.29314199  0.26277241    -0.11600
C514        C  0.97308960  0.31282850  0.26917297     0.05400
C515        C  0.99665884  0.30989764  0.24248798    -0.06800
C516        C  0.98227834  0.28855804  0.20979481    -0.07600
C517        C  0.94464759  0.27024264  0.20247582    -0.02100
C518        C  0.92088251  0.27233037  0.22960942     0.04700
N519        N  0.88252565  0.25615649  0.22266934     0.67200
H520        H  0.91681205  0.29550084  0.28254613     0.16100
H521        H  0.00077687  0.28673315  0.18965565     0.15800
N522        N  0.03527303  0.32784896  0.24824191     0.74900
O523        O  0.86070629  0.22693304  0.23988313    -0.38600
O524        O  0.87045451  0.27572342  0.20859730    -0.38500
O525        O  0.04922368  0.30925739  0.26034060    -0.39200
O526        O  0.05540771  0.35783016  0.23134122    -0.39300
C527        C  0.92734650  0.28351571  0.04043315    -0.11600
C528        C  0.94898679  0.27252955  0.06041700     0.05400
C529        C  0.98418698  0.28263215  0.04685865    -0.06800
C530        C  0.99773134  0.30465696  0.01402804    -0.07600
C531        C  0.97291548  0.31637445  0.49270919    -0.02100
C532        C  0.93640390  0.30340971  0.50448839     0.04700
N533        N  0.91290716  0.31306932  0.48436000     0.67200
H534        H  0.90034889  0.27607078  0.05101795     0.16100
H535        H  0.02497778  0.31255176  0.00387840     0.15800
N536        N  0.00562943  0.26943502  0.06542192     0.74900
O537        O  0.88916334  0.29007411  0.46203232    -0.38600
O538        O  0.90950604  0.33955006  0.49616656    -0.38500
O539        O  0.99734836  0.23638389  0.06127443    -0.39200
O540        O  0.02765206  0.28825872  0.09140094    -0.39300
C541        C  0.38398764  0.95024021  0.36374215    -0.11600
C542        C  0.38610743  0.98300133  0.37603198     0.05400
C543        C  0.35384330  0.98202490  0.38923016    -0.06800
C544        C  0.32064460  0.94898415  0.38941969    -0.07600
C545        C  0.31861371  0.91665635  0.37637010    -0.02100
C546        C  0.35069183  0.91729794  0.36371839     0.04700
N547        N  0.35024754  0.88460401  0.35185884     0.67200
H548        H  0.40820963  0.95012103  0.35370113     0.16100
H549        H  0.29623144  0.94860125  0.39969953     0.15800
N550        N  0.35429029  0.01373653  0.40428468     0.74900
O551        O  0.35008654  0.87827922  0.31668369    -0.38600
O552        O  0.35989911  0.86812262  0.37520196    -0.38500
O553        O  0.34352714  0.03111969  0.38360104    -0.39200
O554        O  0.35453990  0.01729190  0.43998332    -0.39300
C555        C  0.24288078  0.81619402  0.47626605    -0.11600
C556        C  0.21763683  0.81517223  0.44952647     0.05400
C557        C  0.17992015  0.79385669  0.45798879    -0.06800
C558        C  0.16961872  0.77226603  0.99147885    -0.07600
C559        C  0.19449188  0.77208964  0.01794260    -0.02100
C560        C  0.23148953  0.79606001  0.51010799     0.04700
N561        N  0.25873034  0.79551420  0.53366049     0.67200
H562        H  0.27187025  0.83121082  0.47010617     0.16100
H563        H  0.14054179  0.75617861  0.99687271     0.15800
N564        N  0.15269236  0.79320619  0.43328559     0.74900
O565        O  0.27322605  0.77726817  0.52237398    -0.38600
O566        O  0.27752489  0.81728677  0.05648781    -0.38500
O567        O  0.13109113  0.76368123  0.41662871    -0.39200
O568        O  0.14340571  0.81726476  0.43742933    -0.39300
C569        C  0.17045568  0.77297581  0.26302247    -0.11600
C570        C  0.19482174  0.76825395  0.23972875     0.05400
C571        C  0.23210301  0.78522482  0.24993117    -0.06800
C572        C  0.24417020  0.80624427  0.28308322    -0.07600
C573        C  0.21976667  0.81074035  0.30667744    -0.02100
C574        C  0.18256675  0.79412074  0.29616726     0.04700
N575        N  0.15673103  0.79875578  0.31835448     0.67200
H576        H  0.14185051  0.76026519  0.25541093     0.16100
H577        H  0.27256812  0.81792151  0.29117931     0.15800
N578        N  0.25754852  0.77904979  0.22878656     0.74900
O579        O  0.15219929  0.82569813  0.31144365    -0.38600
O580        O  0.13219483  0.77158607  0.33628536    -0.38500
O581        O  0.28144154  0.80457261  0.20851729    -0.39200
O582        O  0.26177606  0.75226867  0.23761345    -0.39300
C583        C  0.40221236  0.27040109  0.12749712    -0.11600
C584        C  0.43506400  0.27027716  0.12200478     0.05400
C585        C  0.46789199  0.30362636  0.11802135    -0.06800
C586        C  0.46748897  0.33650858  0.11867543    -0.07600
C587        C  0.43480797  0.33726212  0.12392358    -0.02100
C588        C  0.40172991  0.30353609  0.12868017     0.04700
N589        N  0.36762230  0.30217364  0.13546181     0.67200
H590        H  0.37693013  0.24473231  0.13094285     0.16100
H591        H  0.49327546  0.36164594  0.11530538     0.15800
N592        N  0.50217853  0.30474596  0.11414543     0.74900
O593        O  0.34611208  0.29616580  0.10791184    -0.38600
O594        O  0.35540387  0.29756008  0.16909586    -0.38500
O595        O  0.52007620  0.31690636  0.08359382    -0.39200
O596        O  0.51857072  0.30366164  0.14380847    -0.39300
C597        C  0.49105582  0.16263654  0.22682271    -0.11600
C598        C  0.46567795  0.14904125  0.25711170     0.05400
C599        C  0.43221738  0.14898689  0.25277149    -0.06800
C600        C  0.42491822  0.16177716  0.21863330    -0.07600
C601        C  0.45029952  0.17464438  0.18857740    -0.02100
C602        C  0.48383673  0.17545532  0.19314281     0.04700
N603        N  0.51175556  0.19099852  0.16460218     0.67200
H604        H  0.51734881  0.16393967  0.22916765     0.16100
H605        H  0.39914702  0.16151861  0.21549255     0.15800
N606        N  0.40549493  0.13646603  0.28248870     0.74900
O607        O  0.53485718  0.22477074  0.16585961    -0.38600
O608        O  0.51852115  0.17015337  0.14461000    -0.38500
O609        O  0.40238125  0.15971408  0.30242569    -0.39200
O610        O  0.37963600  0.10372391  0.28207140    -0.39300
C611        C  0.42273619  0.14585343  0.02957478    -0.11600
C612        C  0.44922902  0.17801384  0.04707991     0.05400
C613        C  0.48428915  0.19775377  0.03076344    -0.06800
C614        C  0.49275166  0.18459096  0.99800360    -0.07600
C615        C  0.46368780  0.15149556  0.48027517    -0.02100
C616        C  0.42741504  0.13373656  0.49439470     0.04700
N617        N  0.39970055  0.10068019  0.47767956     0.67200
H618        H  0.39565299  0.13021229  0.04236857     0.16100
H619        H  0.52036201  0.19984310  0.98625169     0.15800
N620        N  0.51172119  0.23086723  0.04781628     0.74900
O621        O  0.39368031  0.07054939  0.49177217    -0.38600
O622        O  0.37543171  0.10160490  0.45738919    -0.38500
O623        O  0.52722648  0.22963789  0.07811854    -0.39200
O624        O  0.51649737  0.26122864  0.03577240    -0.39300
C625        C  0.43581907  0.23547965  0.62148824     0.03800
C626        C  0.43530559  0.22001030  0.58597261    -0.12300
C627        C  0.43839719  0.18845692  0.58372674     0.01300
C628        C  0.44103373  0.17169879  0.61723041    -0.10800
C629        C  0.44176600  0.18699468  0.65298362     0.03800
C630        C  0.43852413  0.21859529  0.65497237    -0.10300
H631        H  0.43471082  0.23372166  0.55999243     0.09400
H632        H  0.44436063  0.14773800  0.61531630     0.07000
H633        H  0.43940607  0.23070835  0.68237858     0.06800
C634        C  0.28596229  0.88126097  0.87747318     0.03800
C635        C  0.27020206  0.86382830  0.84307836    -0.12300
C636        C  0.23692886  0.83061078  0.84278378     0.01300
C637        C  0.21961872  0.81471817  0.87758318    -0.10800
C638        C  0.23455706  0.83240245  0.91238172     0.03800
C639        C  0.26745106  0.86618627  0.91179535    -0.10300
H640        H  0.28405166  0.87603576  0.81646300     0.09400
H641        H  0.19596598  0.78752828  0.87758941     0.07000
H642        H  0.27962921  0.88011001  0.93831692     0.06800
C643        C  0.88512120  0.19931208  0.62892542     0.03800
C644        C  0.90107032  0.21815190  0.59493974    -0.12300
C645        C  0.93115742  0.25366035  0.59580509     0.01300
C646        C  0.94477109  0.27093281  0.63092212    -0.10800
C647        C  0.92872871  0.25272597  0.66529011     0.03800
C648        C  0.89961562  0.21658394  0.66403281    -0.10300
H649        H  0.88910043  0.20607131  0.56773478     0.09400
H650        H  0.96699903  0.29906211  0.63140597     0.07000
H651        H  0.88766333  0.20206670  0.69040497     0.06800
C652        C  0.73539619  0.84566301  0.87222165     0.03800
C653        C  0.73219143  0.86183698  0.83846072    -0.12300
C654        C  0.72987178  0.89412489  0.83941861     0.01300
C655        C  0.73098896  0.91015099  0.87492449    -0.10800
C656        C  0.73504913  0.89478530  0.90900047     0.03800
C657        C  0.73779581  0.86281475  0.90721070    -0.10300
H658        H  0.73072776  0.84877004  0.81141895     0.09400
H659        H  0.72584244  0.93286572  0.87628822     0.07000
H660        H  0.73984550  0.85011154  0.93335099     0.06800
C661        C  0.92884456  0.69044340  0.62401719     0.03800
C662        C  0.91031235  0.68681278  0.58938050    -0.12300
C663        C  0.87709029  0.68702552  0.58866887     0.01300
C664        C  0.86221031  0.69041022  0.62333171    -0.10800
C665        C  0.87827765  0.69064034  0.65851570     0.03800
C666        C  0.91239896  0.69233668  0.65846527    -0.10300
H667        H  0.92015863  0.68093673  0.56340779     0.09400
H668        H  0.83603253  0.68950051  0.62319141     0.07000
H669        H  0.92490331  0.69252617  0.68542212     0.06800
C670        C  0.23996021  0.39340917  0.87328870     0.03800
C671        C  0.25682507  0.39204026  0.90734146    -0.12300
C672        C  0.29271808  0.39853102  0.90707793     0.01300
C673        C  0.31076375  0.40292562  0.87220034    -0.10800
C674        C  0.29309852  0.40130459  0.83774128     0.03800
C675        C  0.25794646  0.39695750  0.83841037    -0.10300
H676        H  0.24299228  0.38813812  0.93437990     0.09400
H677        H  0.33887016  0.40873860  0.87193050     0.07000
H678        H  0.24563920  0.39852743  0.81184735     0.06800
Zn679      Zn  0.05237686  0.40904567  0.92390031     1.49700
Zn680      Zn  0.01429346  0.44847507  0.88118724     1.49400
Zn681      Zn  0.04891515  0.40984171  0.83246451     1.49100
Zn682      Zn  0.97686550  0.36109838  0.88123920     1.49500
O683        O  0.02308028  0.40703239  0.87976915    -1.83400
O684        O  0.07222619  0.45753721  0.95211637    -0.74000
O685        O  0.03532817  0.48166433  0.83559493    -0.73900
O686        O  0.09298287  0.40452441  0.84241627    -0.73400
O687        O  0.04020907  0.48030461  0.92516822    -0.74100
O688        O  0.09427456  0.40319155  0.90582242    -0.73700
O689        O  0.06365137  0.45722523  0.80410827    -0.74200
O690        O  0.96975377  0.33080637  0.83340599    -0.73600
O691        O  0.96078057  0.43245497  0.88557330    -0.74400
O692        O  0.01759008  0.36839459  0.79783573    -0.73800
O693        O  0.93589203  0.37206518  0.88296998    -0.74200
O694        O  0.97110114  0.33281645  0.93022304    -0.74200
O695        O  0.02266809  0.36810814  0.96166379    -0.73900
C696        C  0.06324661  0.48231487  0.94981246     0.77800
C697        C  0.05545352  0.48242932  0.80816793     0.78300
C698        C  0.10717056  0.40179496  0.87337941     0.77300
C699        C  0.98772952  0.33847093  0.80217242     0.77700
C700        C  0.93275549  0.40057939  0.88544508     0.78800
C701        C  0.99087904  0.33993572  0.95997330     0.77900
Zn702      Zn  0.11970600  0.67531940  0.58230974     1.49700
Zn703      Zn  0.19424856  0.72406726  0.62679015     1.49400
Zn704      Zn  0.11987046  0.67372054  0.67321868     1.49100
Zn705      Zn  0.15765215  0.63691041  0.62659793     1.49500
O706        O  0.14777855  0.67751121  0.62729291    -1.83400
O707        O  0.14969011  0.71838435  0.54776900    -0.74000
O708        O  0.20154067  0.75178436  0.67551379    -0.73900
O709        O  0.07371935  0.67539012  0.66093648    -0.73400
O710        O  0.19981830  0.75489690  0.58055307    -0.74100
O711        O  0.07447802  0.67689256  0.59757311    -0.73700
O712        O  0.15122652  0.71531329  0.70865793    -0.74200
O713        O  0.13289983  0.60140020  0.67015151    -0.73600
O714        O  0.23668421  0.71575070  0.62452853    -0.74400
O715        O  0.10488464  0.62634898  0.70124018    -0.73800
O716        O  0.21187778  0.65533719  0.62784383    -0.74200
O717        O  0.13687102  0.60707317  0.57968173    -0.74200
O718        O  0.10491734  0.62935858  0.55161895    -0.73900
C719        C  0.18039771  0.74779039  0.55061801     0.77800
C720        C  0.18262208  0.74397045  0.70594635     0.78300
C721        C  0.05958043  0.67671601  0.62927642     0.77300
C722        C  0.11220303  0.60058254  0.69703763     0.77700
C723        C  0.23984791  0.68731514  0.62611230     0.78800
C724        C  0.11525783  0.60562001  0.55354880     0.77900
Zn725      Zn  0.46398794  0.10035449  0.87079846     1.49700
Zn726      Zn  0.53981088  0.12936419  0.82547270     1.49400
Zn727      Zn  0.53972591  0.12790578  0.91499826     1.49100
Zn728      Zn  0.50747437  0.05404232  0.86797966     1.49500
O729        O  0.51215546  0.10261583  0.87011891    -1.83400
O730        O  0.45539194  0.12202658  0.82119659    -0.74000
O731        O  0.58109911  0.17881435  0.83755123    -0.73900
O732        O  0.50917613  0.13906323  0.95062621    -0.73400
O733        O  0.50719098  0.13683933  0.79104509    -0.74100
O734        O  0.45813909  0.12478463  0.91874512    -0.73700
O735        O  0.58275296  0.17610490  0.90054477    -0.74200
O736        O  0.53723498  0.04708616  0.90956624    -0.73600
O737        O  0.56096298  0.10328482  0.79618119    -0.74400
O738        O  0.55885510  0.09876449  0.94251668    -0.73800
O739        O  0.52819955  0.04672699  0.81890257    -0.74200
O740        O  0.45391872  0.01573884  0.87310605    -0.74200
O741        O  0.42439321  0.04737339  0.87462815    -0.73900
C742        C  0.47582267  0.13423147  0.79163885     0.77800
C743        C  0.59555672  0.19308774  0.86923111     0.78300
C744        C  0.47828152  0.13756492  0.94827204     0.77300
C745        C  0.55623160  0.06762715  0.93690128     0.77700
C746        C  0.55152537  0.06952848  0.79538177     0.78800
C747        C  0.42430145  0.01701890  0.87542948     0.77900
Zn748      Zn  0.60827905  0.96831639  0.61779139     1.49700
Zn749      Zn  0.65966385  0.93206847  0.62289944     1.49400
Zn750      Zn  0.68555740  0.00648539  0.57583341     1.49100
Zn751      Zn  0.68079765  0.00621312  0.66710339     1.49500
O752        O  0.65873425  0.97833923  0.62079437    -1.83400
O753        O  0.57319192  0.91402741  0.61596912    -0.74000
O754        O  0.68499291  0.92577610  0.57680665    -0.73900
O755        O  0.65510950  0.02230333  0.54381203    -0.73400
O756        O  0.60896973  0.88956321  0.62144577    -0.74100
O757        O  0.60092601  0.99339992  0.57255300    -0.73700
O758        O  0.69912508  0.97578849  0.54272233    -0.74200
O759        O  0.72785112  0.05241125  0.65529669    -0.73600
O760        O  0.68039345  0.92596671  0.67264862    -0.74400
O761        O  0.73218693  0.05159275  0.59207034    -0.73800
O762        O  0.69135476  0.97596011  0.70467066    -0.74200
O763        O  0.64735810  0.02104689  0.69259048    -0.74200
O764        O  0.59463702  0.98891679  0.66232649    -0.73900
C765        C  0.57736240  0.88607144  0.61850549     0.77800
C766        C  0.69763698  0.94489649  0.54654866     0.78300
C767        C  0.62179032  0.01450550  0.54644281     0.77300
C768        C  0.74484511  0.06650061  0.62429110     0.77700
C769        C  0.69025505  0.94512518  0.70295747     0.78800
C770        C  0.61366713  0.01110898  0.68844944     0.77900
C771        C  0.72117060  0.33715233  0.87932690     0.80900
N772        N  0.75512957  0.34196813  0.88506980    -0.77400
C773        C  0.78464371  0.37618478  0.88613107     0.83400
N774        N  0.77951601  0.40546810  0.88197406    -0.77300
C775        C  0.74568969  0.40094211  0.87604491     0.83500
N776        N  0.71652896  0.36661481  0.87437719    -0.79000
C777        C  0.44772766  0.74195571  0.62618608     0.80900
N778        N  0.45225681  0.71220478  0.62792265    -0.77400
C779        C  0.42335094  0.67802819  0.63291481     0.83400
N780        N  0.38913479  0.67338237  0.63562659    -0.77300
C781        C  0.38404652  0.70286805  0.63362701     0.83500
N782        N  0.41349974  0.73697215  0.62895085    -0.79000
Zn783      Zn  0.40078118  0.41860648  0.62208089     1.49700
Zn784      Zn  0.45086906  0.49551445  0.57958138     1.49400
Zn785      Zn  0.45070829  0.49344518  0.66828187     1.49100
Zn786      Zn  0.49010629  0.45804607  0.62433568     1.49500
O787        O  0.44786926  0.46588920  0.62342060    -1.83400
O788        O  0.37160187  0.41375388  0.57378364    -0.74000
O789        O  0.44831377  0.54090130  0.59301336    -0.73900
O790        O  0.40820955  0.46232578  0.70095550    -0.73400
O791        O  0.40949508  0.46573941  0.54398584    -0.74100
O792        O  0.36986249  0.41162275  0.67001319    -0.73700
O793        O  0.44743485  0.53850809  0.65617023    -0.74200
O794        O  0.52142517  0.47850559  0.67182888    -0.73600
O795        O  0.49805812  0.51263792  0.55240777    -0.74400
O796        O  0.49654395  0.50846244  0.69861769    -0.73800
O797        O  0.52502194  0.48519333  0.58103614    -0.74200
O798        O  0.47195335  0.40380657  0.62110567    -0.74200
O799        O  0.41114368  0.37681865  0.62042245    -0.73900
C800        C  0.37992970  0.43497262  0.54492858     0.77800
C801        C  0.44673404  0.55392933  0.62516787     0.78300
C802        C  0.37818639  0.43215619  0.69933410     0.77300
C803        C  0.52157029  0.49987547  0.69756952     0.77700
C804        C  0.52477933  0.50675597  0.55561161     0.78800
C805        C  0.44044594  0.37505053  0.62011420     0.77900
Zn806      Zn  0.71607517  0.58364212  0.91910771     1.49700
Zn807      Zn  0.76675373  0.65814156  0.87497094     1.49400
Zn808      Zn  0.71566042  0.58288737  0.83049330     1.49100
Zn809      Zn  0.67783218  0.62106549  0.87396433     1.49500
O810        O  0.71935914  0.61219881  0.87445810    -1.83400
O811        O  0.75281663  0.61460839  0.95755597    -0.74000
O812        O  0.79516216  0.66261974  0.82506385    -0.73900
O813        O  0.72236428  0.54003281  0.84453990    -0.73400
O814        O  0.79486949  0.66223874  0.92488430    -0.74100
O815        O  0.72589693  0.54244395  0.90765564    -0.73700
O816        O  0.75499750  0.61353340  0.79293955    -0.74200
O817        O  0.64416200  0.59690431  0.82854531    -0.73600
O818        O  0.75783152  0.70153004  0.87554893    -0.74400
O819        O  0.66688408  0.56365915  0.80471070    -0.73800
O820        O  0.69718094  0.67597368  0.87411775    -0.74200
O821        O  0.64414999  0.59646046  0.91909240    -0.74200
O822        O  0.66699665  0.56329240  0.94349581    -0.73900
C823        C  0.78357513  0.64385628  0.95598898     0.77800
C824        C  0.78528058  0.64349528  0.79443996     0.78300
C825        C  0.72685063  0.52795364  0.87622935     0.77300
C826        C  0.64202879  0.57252248  0.80548445     0.77700
C827        C  0.72905278  0.70435852  0.87488352     0.78800
C828        C  0.64216011  0.57211558  0.94226118     0.77900
C829        C  0.61040637  0.52861399  0.75232903    -0.11600
C830        C  0.61030661  0.55359681  0.77891910     0.05400
C831        C  0.57967448  0.55891670  0.77962307    -0.06800
C832        C  0.55106523  0.54044778  0.75358756    -0.07600
C833        C  0.55166953  0.51629328  0.72629425    -0.02100
C834        C  0.58170261  0.51002414  0.72640574     0.04700
N835        N  0.58389475  0.48501302  0.70050708     0.67200
H836        H  0.63307663  0.52338769  0.75131544     0.16100
H837        H  0.52832055  0.54555592  0.75467875     0.15800
N838        N  0.57653802  0.58255995  0.80664805     0.74900
O839        O  0.60319851  0.49735577  0.67081573    -0.38600
O840        O  0.57501291  0.45317822  0.71198018    -0.38500
O841        O  0.58597068  0.61496000  0.79684133    -0.39200
O842        O  0.55476857  0.56840691  0.83428466    -0.39300
C843        C  0.61584436  0.53853969  0.00261963    -0.11600
C844        C  0.61093533  0.55372431  0.96903997     0.05400
C845        C  0.57646108  0.55409454  0.46612598    -0.06800
C846        C  0.54888995  0.53683054  0.49337764    -0.07600
C847        C  0.55561757  0.52537781  0.52853900    -0.02100
C848        C  0.58736023  0.52013221  0.02877173     0.04700
N849        N  0.59487031  0.50611327  0.06257200     0.67200
H850        H  0.64211474  0.54100177  0.00886797     0.16100
H851        H  0.52168695  0.53153545  0.48638111     0.15800
N852        N  0.56661121  0.56184670  0.42982854     0.74900
O853        O  0.58848741  0.47344405  0.06277421    -0.38600
O854        O  0.61571830  0.54874827  0.59756580    -0.38500
O855        O  0.55093407  0.53594661  0.90157748    -0.39200
O856        O  0.56860312  0.59248604  0.42454213    -0.39300
C857        C  0.45479823  0.64673684  0.60576826    -0.11600
C858        C  0.42935971  0.64628005  0.63200097     0.05400
C859        C  0.41040160  0.61558324  0.65613918    -0.06800
C860        C  0.41705662  0.58621388  0.65357876    -0.07600
C861        C  0.44197319  0.58639170  0.62697297    -0.02100
C862        C  0.46098158  0.61704838  0.60280461     0.04700
N863        N  0.48755240  0.61917140  0.57606064     0.67200
H864        H  0.46962849  0.67005370  0.58703004     0.16100
H865        H  0.40234443  0.56291284  0.67236387     0.15800
N866        N  0.38514909  0.61397297  0.68427829     0.74900
O867        O  0.47849005  0.61127322  0.54160467    -0.38600
O868        O  0.52103052  0.63760317  0.58447658    -0.38500
O869        O  0.35222747  0.58882947  0.68210468    -0.39200
O870        O  0.39730541  0.62943941  0.71595366    -0.39300
C871        C  0.76163767  0.46237079  0.89963885    -0.11600
C872        C  0.74070907  0.43329402  0.87477083     0.05400
C873        C  0.71528540  0.43566780  0.85039442    -0.06800
C874        C  0.71178157  0.46708626  0.85094170    -0.07600
C875        C  0.73229606  0.49586928  0.87630278    -0.02100
C876        C  0.75726462  0.49319117  0.90107270     0.04700
N877        N  0.77905240  0.52175075  0.92729685     0.67200
H878        H  0.78100027  0.46086269  0.91876871     0.16100
H879        H  0.69240985  0.46867890  0.83190133     0.15800
N880        N  0.69336091  0.40697757  0.82434406     0.74900
O881        O  0.76876510  0.51872151  0.96157106    -0.38600
O882        O  0.81202646  0.54386524  0.91908969    -0.38500
O883        O  0.66027725  0.38523829  0.83250081    -0.39200
O884        O  0.70373939  0.40955652  0.79015362    -0.39300
C885        C  0.51009465  0.84533353  0.61267366    -0.11600
C886        C  0.54466136  0.84887697  0.61862076     0.05400
C887        C  0.54681034  0.81685567  0.62566732    -0.06800
C888        C  0.51496235  0.78280572  0.62738133    -0.07600
C889        C  0.48026905  0.77919672  0.62226699    -0.02100
C890        C  0.47812954  0.81115520  0.61434959     0.04700
N891        N  0.44409468  0.80988286  0.60752002     0.67200
H892        H  0.50760250  0.86929619  0.60688549     0.16100
H893        H  0.51771769  0.75905366  0.63347382     0.15800
N894        N  0.58082456  0.81805793  0.63240742     0.74900
O895        O  0.42902075  0.81721611  0.63454716    -0.38600
O896        O  0.43548531  0.81252239  0.57366050    -0.38500
O897        O  0.58867515  0.81358887  0.66597126    -0.39200
O898        O  0.59710964  0.81308021  0.60484802    -0.39300
C899        C  0.65145042  0.23898028  0.90183642    -0.11600
C900        C  0.62820381  0.22983770  0.87018555     0.05400
C901        C  0.63652095  0.25614759  0.84102005    -0.06800
C902        C  0.66679095  0.29120779  0.84492740    -0.07600
C903        C  0.68963484  0.30018410  0.87678697    -0.02100
C904        C  0.68211573  0.27368050  0.90520803     0.04700
N905        N  0.70435884  0.28182780  0.93846515     0.67200
H906        H  0.64580819  0.21914659  0.92428030     0.16100
H907        H  0.67277409  0.31135689  0.82272647     0.15800
N908        N  0.61446535  0.24815878  0.80759212     0.74900
O909        O  0.69736692  0.29554886  0.96698862    -0.38600
O910        O  0.72284662  0.26600661  0.94313525    -0.38500
O911        O  0.59271871  0.26051146  0.80472011    -0.39200
O912        O  0.62340494  0.23748952  0.77796206    -0.39300
C913        C  0.56846353  0.05700577  0.50410281    -0.11600
C914        C  0.57478517  0.05501567  0.96381793     0.05400
C915        C  0.59389928  0.03704621  0.95190275    -0.06800
C916        C  0.61102598  0.02600321  0.97905435    -0.07600
C917        C  0.60644065  0.02986509  0.51868641    -0.02100
C918        C  0.58515016  0.04533320  0.53091216     0.04700
N919        N  0.58133326  0.05075592  0.57049407     0.67200
H920        H  0.55225655  0.06877082  0.51406142     0.16100
H921        H  0.62533563  0.01202936  0.96970769     0.15800
N922        N  0.59683359  0.03036486  0.91248132     0.74900
O923        O  0.60279284  0.08135586  0.58536372    -0.38600
O924        O  0.55199163  0.02909922  0.58751896    -0.38500
O925        O  0.62571341  0.05171918  0.89456177    -0.39200
O926        O  0.57563382  0.99903664  0.89895582    -0.39300
C927        C  0.61919785  0.06084413  0.73073940    -0.11600
C928        C  0.59677816  0.02636043  0.71424060     0.05400
C929        C  0.55900808  0.00751458  0.72286657    -0.06800
C930        C  0.54504971  0.02207384  0.74953744    -0.07600
C931        C  0.56759005  0.05616834  0.76651819    -0.02100
C932        C  0.60486767  0.07618394  0.75604389     0.04700
N933        N  0.62888292  0.11159491  0.77152762     0.67200
H934        H  0.64800705  0.07620544  0.72374957     0.16100
H935        H  0.51625129  0.00684628  0.75657978     0.15800
N936        N  0.53432554  0.97353202  0.70508478     0.74900
O937        O  0.64910521  0.11434770  0.79932264    -0.38600
O938        O  0.63667305  0.13967519  0.75174623    -0.38500
O939        O  0.52358503  0.94399667  0.72329503    -0.39200
O940        O  0.51677909  0.97375182  0.67600936    -0.39300
C941        C  0.28109588  0.66366860  0.64416173    -0.11600
C942        C  0.27678437  0.69155018  0.62741320     0.05400
C943        C  0.30800484  0.72303538  0.61331853    -0.06800
C944        C  0.34237493  0.72611181  0.61646686    -0.07600
C945        C  0.34683696  0.69828616  0.63320781    -0.02100
C946        C  0.31556335  0.66669201  0.64713339     0.04700
N947        N  0.31791675  0.63745953  0.66495395     0.67200
H948        H  0.25765061  0.63945905  0.65555923     0.16100
H949        H  0.36550823  0.75008788  0.60433633     0.15800
N950        N  0.30533946  0.75049797  0.59200490     0.74900
O951        O  0.32291461  0.63859341  0.70052014    -0.38600
O952        O  0.30423538  0.60700122  0.64810226    -0.38500
O953        O  0.31192042  0.77979443  0.60849457    -0.39200
O954        O  0.30950283  0.75085667  0.55637375    -0.39300
C955        C  0.86607906  0.36032750  0.89497176    -0.11600
C956        C  0.89548148  0.39573907  0.88831553     0.05400
C957        C  0.88815431  0.42486173  0.88388385    -0.06800
C958        C  0.85204963  0.41781255  0.88460361    -0.07600
C959        C  0.82240677  0.38204558  0.88937307    -0.02100
C960        C  0.82998283  0.35316247  0.89537316     0.04700
N961        N  0.80179854  0.31623687  0.90190834     0.67200
H962        H  0.87088773  0.33760625  0.89938098     0.16100
H963        H  0.84740923  0.44062957  0.88024749     0.15800
N964        N  0.91664895  0.46160258  0.87702517     0.74900
O965        O  0.78927551  0.29472739  0.87387905    -0.38600
O966        O  0.79826066  0.30294083  0.93496819    -0.38500
O967        O  0.92338674  0.47349316  0.84320536    -0.39200
O968        O  0.92794812  0.48413092  0.90425167    -0.39300
C969        C  0.11014692  0.54690421  0.53219415    -0.11600
C970        C  0.10161376  0.57490642  0.52588898     0.05400
C971        C  0.07974653  0.57207019  0.49413035    -0.06800
C972        C  0.06990100  0.54196195  0.96985542    -0.07600
C973        C  0.07929810  0.51451200  0.97570647    -0.02100
C974        C  0.10289982  0.51858412  0.00619342     0.04700
N975        N  0.10599145  0.48864471  0.51708882     0.67200
H976        H  0.12668059  0.54813631  0.55633001     0.16100
H977        H  0.05227743  0.54000232  0.94649104     0.15800
N978        N  0.07061936  0.59817344  0.98685447     0.74900
O979        O  0.13665165  0.49299574  0.50699115    -0.38600
O980        O  0.09771617  0.46844675  0.03954980    -0.38500
O981        O  0.08621558  0.62176348  0.96087262    -0.39200
O982        O  0.03910002  0.59418559  0.49671473    -0.39300
C983        C  0.07672928  0.50641997  0.74270648    -0.11600
C984        C  0.06934978  0.51287914  0.78005263     0.05400
C985        C  0.07551923  0.54818145  0.78950491    -0.06800
C986        C  0.08896810  0.57597175  0.76186588    -0.07600
C987        C  0.09683175  0.56965355  0.72464819    -0.02100
C988        C  0.09018912  0.53422617  0.71507261     0.04700
N989        N  0.09554040  0.52541607  0.67715098     0.67200
H990        H  0.07159772  0.47946020  0.73467499     0.16100
H991        H  0.09412938  0.60293213  0.76994169     0.15800
N992        N  0.07023489  0.55704322  0.82744686     0.74900
O993        O  0.12394566  0.52374398  0.66955184    -0.38600
O994        O  0.06847337  0.51036257  0.65495403    -0.38500
O995        O  0.09736647  0.57230138  0.84953777    -0.39200
O996        O  0.04163917  0.55828838  0.83526849    -0.39300
C997        C  0.17834744  0.37522899  0.84639746    -0.11600
C998        C  0.20522219  0.39441446  0.87415967     0.05400
C999        C  0.19928196  0.41603340  0.90097037    -0.06800
C1000       C  0.16673651  0.41699603  0.90037884    -0.07600
C1001       C  0.14029905  0.39842930  0.87239588    -0.02100
C1002       C  0.14645820  0.37776201  0.84473187     0.04700
N1003       N  0.12067483  0.35890256  0.81506519     0.67200
H1004       H  0.18227073  0.35854767  0.82556359     0.16100
H1005       H  0.16288054  0.43386316  0.92106405     0.15800
N1006       N  0.22707208  0.43978839  0.92694642     0.74900
O1007       O  0.12540314  0.37416339  0.78288920    -0.38600
O1008       O  0.09996570  0.32468274  0.81771950    -0.38500
O1009       O  0.24858951  0.47244893  0.91690157    -0.39200
O1010       O  0.22338298  0.43180280  0.96199567    -0.39300
C1011       C  0.35899221  0.45062528  0.98598646    -0.11600
C1012       C  0.35511612  0.42510977  0.51157568     0.04800
C1013       C  0.33067982  0.38859638  0.50025976    -0.06800
C1014       C  0.30676547  0.37845737  0.96895728    -0.07600
C1015       C  0.31312129  0.40664897  0.94324976    -0.02100
C1016       C  0.33891328  0.44300629  0.95243034     0.04700
N1017       N  0.34500482  0.47279905  0.92806681     0.67200
H1018       H  0.37870338  0.47892624  0.99207399     0.16100
H1019       H  0.28663022  0.35045165  0.96225375     0.15800
N1020       N  0.32766233  0.35804923  0.52119873     0.74900
O1021       O  0.32416774  0.48622414  0.93078312    -0.38600
O1022       O  0.37596465  0.49160020  0.91269448    -0.38500
O1023       O  0.30053346  0.34039830  0.54294594    -0.39200
O1024       O  0.34565438  0.34316135  0.51012885    -0.39300
C1025       C  0.36108841  0.45071709  0.75901356    -0.11600
C1026       C  0.35339488  0.42253207  0.73283474     0.05400
C1027       C  0.32394586  0.38698610  0.74073466    -0.06800
C1028       C  0.30394287  0.38044326  0.77484717    -0.07600
C1029       C  0.31305300  0.40873021  0.80127827    -0.02100
C1030       C  0.34154716  0.44412606  0.79279474     0.04700
N1031       N  0.35159445  0.47388372  0.81847353     0.67200
H1032       H  0.38287704  0.47841048  0.75366093     0.16100
H1033       H  0.28182514  0.35313054  0.78109723     0.15800
N1034       N  0.31463858  0.35709493  0.71538182     0.74900
O1035       O  0.38156250  0.48646863  0.83600085    -0.38600
O1036       O  0.33717043  0.49377796  0.81459940    -0.38500
O1037       O  0.32537419  0.33457774  0.72278044    -0.39200
O1038       O  0.28904069  0.34835913  0.69176580    -0.39300
C1039       C  0.96686611  0.66654285  0.65414760    -0.11600
C1040       C  0.96271886  0.68729599  0.62494628     0.05400
C1041       C  0.99074788  0.70386741  0.59717344    -0.06800
C1042       C  0.02135240  0.69919207  0.59896365    -0.07600
C1043       C  0.02582511  0.67940387  0.62869013    -0.02100
C1044       C  0.99826958  0.66320528  0.65675105     0.04700
N1045       N  0.00127002  0.64280073  0.68782646     0.67200
H1046       H  0.94556258  0.65250664  0.67515882     0.16100
H1047       H  0.04245074  0.71232703  0.57750904     0.15800
N1048       N  0.98978642  0.72697728  0.56780416     0.74900
O1049       O  0.01302625  0.65850604  0.71948068    -0.38600
O1050       O  0.98380152  0.60824305  0.68663604    -0.38500
O1051       O  0.00415893  0.76088470  0.57410401    -0.39200
O1052       O  0.98553746  0.71602841  0.53373682    -0.39300
C1053       C  0.81986451  0.65041370  0.69210530    -0.11600
C1054       C  0.85541601  0.68060908  0.69396587     0.05400
C1055       C  0.86791299  0.69859863  0.72937234    -0.06800
C1056       C  0.84481291  0.68628010  0.76160721    -0.07600
C1057       C  0.80910441  0.65602885  0.75959365    -0.02100
C1058       C  0.79676990  0.63826722  0.72389537     0.04700
N1059       N  0.76058547  0.60811835  0.71875628     0.67200
H1060       H  0.80978270  0.63566547  0.66560572     0.16100
H1061       H  0.85496665  0.70058576  0.78829255     0.15800
N1062       N  0.90336165  0.73015299  0.73303321     0.74900
O1063       O  0.73606286  0.61410207  0.70587517    -0.38600
O1064       O  0.75563594  0.57595987  0.71788305    -0.38500
O1065       O  0.90647038  0.76153418  0.73077440    -0.39200
O1066       O  0.92852553  0.72683142  0.74870277    -0.39300
C1067       C  0.81725763  0.64939012  0.55672614    -0.11600
C1068       C  0.85411224  0.67669186  0.55347564     0.05400
C1069       C  0.86755558  0.69229249  0.51710871    -0.06800
C1070       C  0.84400732  0.68088920  0.98862517    -0.07600
C1071       C  0.80641336  0.65576448  0.99120141    -0.02100
C1072       C  0.79374205  0.63826119  0.52542966     0.04700
N1073       N  0.75629496  0.61125116  0.53169015     0.67200
H1074       H  0.80641889  0.63620943  0.58393305     0.16100
H1075       H  0.85610513  0.69259769  0.96126249     0.15800
N1076       N  0.90480477  0.71991359  0.51156764     0.74900
O1077       O  0.74723443  0.57777585  0.53208793    -0.38600
O1078       O  0.73478064  0.62092295  0.54560707    -0.38500
O1079       O  0.92561498  0.71192782  0.49315933    -0.39200
O1080       O  0.91466306  0.75090108  0.02150789    -0.39300
C1081       C  0.76336245  0.80692026  0.88736657    -0.11600
C1082       C  0.73435009  0.80980952  0.87144339     0.05400
C1083       C  0.70412387  0.77808477  0.85651227    -0.06800
C1084       C  0.70328863  0.74440746  0.85795629    -0.07600
C1085       C  0.73219056  0.74125466  0.87391769    -0.02100
C1086       C  0.76273133  0.77320593  0.88851012     0.04700
N1087       N  0.79274654  0.77192366  0.90589147     0.67200
H1088       H  0.78660987  0.83098348  0.89911389     0.16100
H1089       H  0.67964645  0.72050254  0.84653751     0.15800
N1090       N  0.67311133  0.77905516  0.84144839     0.74900
O1091       O  0.82134397  0.78124104  0.88659323    -0.38600
O1092       O  0.79434328  0.77113080  0.94179555    -0.38500
O1093       O  0.66858996  0.77780701  0.80579551    -0.39200
O1094       O  0.64624581  0.77118246  0.86308043    -0.39300
C1095       C  0.70363378  0.88253093  0.97178372    -0.11600
C1096       C  0.72982315  0.90811616  0.94650585     0.05400
C1097       C  0.74734580  0.94567708  0.95611239    -0.06800
C1098       C  0.73731307  0.95686472  0.98938198    -0.07600
C1099       C  0.70975840  0.93076892  0.51425299    -0.02100
C1100       C  0.69262720  0.89303498  0.50559492     0.04700
N1101       N  0.66416413  0.86616238  0.52909780     0.67200
H1102       H  0.68925092  0.85371776  0.96465337     0.16100
H1103       H  0.75063627  0.98580017  0.99586179     0.15800
N1104       N  0.77524169  0.97303164  0.93252115     0.74900
O1105       O  0.63139595  0.85726605  0.52218146    -0.38600
O1106       O  0.67073743  0.84549582  0.54976041    -0.38500
O1107       O  0.76864754  0.99540402  0.91511039    -0.39200
O1108       O  0.80808060  0.98163682  0.93846298    -0.39300
C1109       C  0.69385472  0.88262520  0.77967124    -0.11600
C1110       C  0.72129804  0.90796796  0.80387916     0.05400
C1111       C  0.73845519  0.94562717  0.79427622    -0.06800
C1112       C  0.72786600  0.95696688  0.76138395    -0.07600
C1113       C  0.70070903  0.93154880  0.73711082    -0.02100
C1114       C  0.68360611  0.89395870  0.74660755     0.04700
N1115       N  0.65429698  0.86694936  0.72433026     0.67200
H1116       H  0.67948417  0.85379191  0.78691379     0.16100
H1117       H  0.74143329  0.98587509  0.75450932     0.15800
N1118       N  0.76735977  0.97285874  0.81680163     0.74900
O1119       O  0.66064321  0.84747573  0.70171249    -0.38600
O1120       O  0.62181705  0.85610326  0.73473673    -0.38500
O1121       O  0.79992786  0.98200175  0.80843968    -0.39200
O1122       O  0.76133745  0.99472351  0.83585994    -0.39300
C1123       C  0.82137080  0.16099367  0.65104265    -0.11600
C1124       C  0.85007289  0.16420181  0.62802677     0.05400
C1125       C  0.84372380  0.13498798  0.60349050    -0.06800
C1126       C  0.80901589  0.10366158  0.60231845    -0.07600
C1127       C  0.78055204  0.10048479  0.62570386    -0.02100
C1128       C  0.78701557  0.12951149  0.65036210     0.04700
N1129       N  0.75861121  0.12839976  0.67356944     0.67200
H1130       H  0.82532023  0.18348032  0.66916273     0.16100
H1131       H  0.80454565  0.08131498  0.58369265     0.15800
N1132       N  0.87234701  0.13584209  0.58080958     0.74900
O1133       O  0.75780784  0.12122489  0.70864068    -0.38600
O1134       O  0.74156760  0.14413397  0.66186120    -0.38500
O1135       O  0.89030546  0.12159094  0.59392967    -0.39200
O1136       O  0.87258302  0.14099813  0.54530868    -0.39300
C1137       C  0.93483581  0.29359611  0.76389610    -0.11600
C1138       C  0.97282722  0.31318132  0.76935552     0.05400
C1139       C  0.99574701  0.31079123  0.74141454    -0.06800
C1140       C  0.98055622  0.28994487  0.70857808    -0.07600
C1141       C  0.94275540  0.27176128  0.70223651    -0.02100
C1142       C  0.91966341  0.27343419  0.73051361     0.04700
N1143       N  0.88119695  0.25763737  0.72455488     0.67200
H1144       H  0.91688149  0.29563625  0.78459666     0.16100
H1145       H  0.99857156  0.28846606  0.68753186     0.15800
N1146       N  0.03454191  0.32903068  0.74584544     0.74900
O1147       O  0.85954918  0.22820802  0.74155135    -0.38600
O1148       O  0.86909067  0.27761782  0.71170664    -0.38500
O1149       O  0.04922740  0.31045947  0.75571483    -0.39200
O1150       O  0.05386607  0.35957348  0.72961272    -0.39300
C1151       C  0.92328700  0.28258883  0.53783434    -0.11600
C1152       C  0.94577508  0.27414502  0.55988020     0.05400
C1153       C  0.98192605  0.28626122  0.54804582    -0.06800
C1154       C  0.99545701  0.30770921  0.51489281    -0.07600
C1155       C  0.97599171  0.31581710  0.99388888    -0.02100
C1156       C  0.94039277  0.30483628  0.00739152     0.04700
N1157       N  0.91786934  0.31691559  0.98925103     0.67200
H1158       H  0.89554478  0.27363811  0.54707686     0.16100
H1159       H  0.02343310  0.31715662  0.50613248     0.15800
N1160       N  0.00450514  0.27573515  0.56874378     0.74900
O1161       O  0.89298490  0.29549527  0.96687708    -0.38600
O1162       O  0.91649689  0.34394208  0.00291799    -0.38500
O1163       O  0.99761814  0.24290645  0.56759082    -0.39200
O1164       O  0.02695869  0.29730342  0.59298121    -0.39300
C1165       C  0.38664653  0.95034346  0.86248219    -0.11600
C1166       C  0.38893537  0.98222889  0.87780825     0.05400
C1167       C  0.35722649  0.98008587  0.89417718    -0.06800
C1168       C  0.32415202  0.94689565  0.89395734    -0.07600
C1169       C  0.32177121  0.91544739  0.87766942    -0.02100
C1170       C  0.35354792  0.91717173  0.86228821     0.04700
N1171       N  0.35311883  0.88529797  0.84760449     0.67200
H1172       H  0.41057626  0.95114007  0.85015975     0.16100
H1173       H  0.30012898  0.94570825  0.90654437     0.15800
N1174       N  0.35836756  0.01055514  0.91325720     0.74900
O1175       O  0.35192052  0.88062899  0.81199040    -0.38600
O1176       O  0.36396456  0.86819702  0.86862211    -0.38500
O1177       O  0.34571239  0.02855320  0.89671054    -0.39200
O1178       O  0.36137044  0.01215218  0.94906815    -0.39300
C1179       C  0.24427080  0.81369917  0.97647948    -0.11600
C1180       C  0.21954116  0.81333417  0.94945861     0.05400
C1181       C  0.18167907  0.79263579  0.95759231    -0.06800
C1182       C  0.16848353  0.77310247  0.49165093    -0.07600
C1183       C  0.19386484  0.77342002  0.51775578    -0.02100
C1184       C  0.23224914  0.79361405  0.01030593     0.04700
N1185       N  0.25877829  0.79150617  0.03367405     0.67200
H1186       H  0.27329716  0.82800986  0.97047286     0.16100
H1187       H  0.13949072  0.75643437  0.49721694     0.15800
N1188       N  0.15490618  0.79202925  0.93221935     0.74900
O1189       O  0.27061048  0.77065728  0.02317313    -0.38600
O1190       O  0.27578291  0.82120712  0.55709725    -0.38500
O1191       O  0.13342337  0.76243842  0.91559221    -0.39200
O1192       O  0.14574464  0.81624508  0.93566148    -0.39300
C1193       C  0.17324899  0.77294699  0.76296130    -0.11600
C1194       C  0.19742551  0.76824521  0.73932683     0.05400
C1195       C  0.23485048  0.78551028  0.74903623    -0.06800
C1196       C  0.24710279  0.80624315  0.78239564    -0.07600
C1197       C  0.22282256  0.81052851  0.80642075    -0.02100
C1198       C  0.18561586  0.79415489  0.79603673     0.04700
N1199       N  0.16012079  0.79948507  0.81804925     0.67200
H1200       H  0.14460604  0.76034724  0.75554480     0.16100
H1201       H  0.27557555  0.81798483  0.79020034     0.15800
N1202       N  0.26039945  0.78030737  0.72690429     0.74900
O1203       O  0.15674234  0.82715899  0.81137169    -0.38600
O1204       O  0.13483806  0.77251400  0.83551054    -0.38500
O1205       O  0.28321629  0.80618073  0.70616855    -0.39200
O1206       O  0.26603542  0.75431860  0.73527428    -0.39300
C1207       C  0.40811454  0.27381140  0.60493970    -0.11600
C1208       C  0.43616893  0.27074947  0.62297874     0.05400
C1209       C  0.46539517  0.30201475  0.63974529    -0.06800
C1210       C  0.46614166  0.33556227  0.63823521    -0.07600
C1211       C  0.43815602  0.33880857  0.62022111    -0.02100
C1212       C  0.40879308  0.30742432  0.60347509     0.04700
N1213       N  0.38087243  0.30958026  0.58250302     0.67200
H1214       H  0.38591428  0.25013258  0.59137628     0.16100
H1215       H  0.48884695  0.35920911  0.65124982     0.15800
N1216       N  0.49556479  0.30071463  0.65667554     0.74900
O1217       O  0.38427724  0.31386955  0.54682571    -0.38600
O1218       O  0.34970566  0.29763967  0.59740011    -0.38500
O1219       O  0.52421923  0.31067437  0.63726350    -0.39200
O1220       O  0.49702417  0.29883052  0.69249832    -0.39300
C1221       C  0.48820540  0.15630794  0.72473262    -0.11600
C1222       C  0.46454504  0.14609697  0.75644151     0.05400
C1223       C  0.43233148  0.14854490  0.75317836    -0.06800
C1224       C  0.42525245  0.16183882  0.71923988    -0.07600
C1225       C  0.44927644  0.17210829  0.68801517    -0.02100
C1226       C  0.48097500  0.16907880  0.69103063     0.04700
N1227       N  0.50720885  0.18052945  0.66081922     0.67200
H1228       H  0.51320819  0.15489859  0.72589675     0.16100
H1229       H  0.40061864  0.16390019  0.71713451     0.15800
N1230       N  0.40645962  0.13763851  0.78361579     0.74900
O1231       O  0.53412399  0.21270977  0.66114373    -0.38600
O1232       O  0.50886665  0.15654879  0.64070256    -0.38500
O1233       O  0.40482590  0.16192360  0.80319158    -0.39200
O1234       O  0.37983614  0.10529008  0.78424748    -0.39300
C1235       C  0.41906677  0.14655872  0.52769841    -0.11600
C1236       C  0.44614352  0.17724140  0.54674377     0.05400
C1237       C  0.48179263  0.19605396  0.53172188    -0.06800
C1238       C  0.49035336  0.18296025  0.49900599    -0.07600
C1239       C  0.46662395  0.15192288  0.98068681    -0.02100
C1240       C  0.43101750  0.13279224  0.99640688     0.04700
N1241       N  0.40417077  0.09832062  0.98144274     0.67200
H1242       H  0.39146020  0.13176827  0.53944279     0.16100
H1243       H  0.51844698  0.19726074  0.48843396     0.15800
N1244       N  0.50981896  0.22765837  0.55055165     0.74900
O1245       O  0.40050929  0.06948785  0.99671381    -0.38600
O1246       O  0.37845875  0.09665826  0.96150447    -0.38500
O1247       O  0.52602975  0.22369404  0.57884426    -0.39200
O1248       O  0.51354955  0.25878026  0.54348789    -0.39300
loop_ 
_geom_bond_atom_site_label_1 
_geom_bond_atom_site_label_2 
_geom_bond_distance 
_geom_bond_site_symmetry_2 
_ccdc_geom_bond_type 
C1            C2   1.402       .  A
C1            C6   1.400       .  A
C1          C584   1.469       .  S
C2            C3   1.401       .  A
C2            H7   1.083       .  S
C3            C4   1.401       .  A
C3          C612   1.475       .  S
C4            C5   1.404       .  A
C4            H8   1.086       .  S
C5            C6   1.401       .  A
C5          C601   1.477       .  S
C6            H9   1.082       .  S
C10          C11   1.397       .  A
C10          C15   1.399       .  A
C10         C545   1.475       .  S
C11          C12   1.403       .  A
C11          H16   1.084       .  S
C12          C13   1.406       .  A
C12         C573   1.482       .  S
C13          C14   1.407       .  A
C13          H17   1.081       .  S
C14          C15   1.408       .  A
C14         C556   1.490       .  S
C15          H18   1.084       .  S
C19          C20   1.402       .  A
C19          C24   1.407       .  A
C19         C500   1.482       .  S
C20          C21   1.399       .  A
C20          H25   1.082       .  S
C21          C22   1.401       .  A
C21         C528   1.474       .  S
C22          C23   1.405       .  A
C22          H26   1.084       .  S
C23          C24   1.401       .  A
C23         C517   1.484       .  S
C24          H27   1.083       .  S
C28          C29   1.401       .  A
C28          C33   1.404       .  A
C28         C458   1.488       .  S
C29          C30   1.408       .  A
C29          H34   1.083       .  S
C30          C31   1.407       .  A
C30         C486   1.490       .  S
C31          C32   1.408       .  A
C31          H35   1.081       .  S
C32          C33   1.408       .  A
C32         C472   1.492       .  S
C33          H36   1.084       .  S
C37          C38   1.409       .  A
C37          C42   1.406       .  A
C37         C416   1.493       .  S
C38          C39   1.409       .  A
C38          H43   1.080       .  S
C39          C40   1.414       .  A
C39         C444   1.499       .  S
C40          C41   1.403       .  A
C40          H44   1.083       .  S
C41          C42   1.399       .  A
C41         C430   1.484       .  S
C42          H45   1.084       .  S
C46          C47   1.404       .  A
C46          C51   1.405       .  A
C46         C374   1.480       .  S
C47          C48   1.397       .  A
C47          H52   1.083       .  S
C48          C49   1.401       .  A
C48         C391   1.472       .  S
C49          C50   1.404       .  A
C49          H53   1.084       .  S
C50          C51   1.401       .  A
C50         C405   1.477       .  S
C51          H54   1.084       .  S
Zn55         O59   1.956       .  S
Zn55         O60   2.031       .  S
Zn55         O64   2.011       .  S
Zn55         O71   2.025       .  S
Zn56         O59   1.959       .  S
Zn56         O61   2.008       .  S
Zn56         O63   1.980       .  S
Zn56         O67   2.022   1_455  S
Zn57         O59   1.952       .  S
Zn57         O62   2.005       .  S
Zn57         O65   2.015       .  S
Zn57         O68   1.994       .  S
Zn58         O59   1.943   1_655  S
Zn58         O66   2.039       .  S
Zn58         O69   1.998       .  S
Zn58         O70   2.027       .  S
O60          C72   1.275       .  A
O61          C73   1.272       .  A
O62          C74   1.271       .  A
O63          C72   1.271       .  A
O64          C74   1.274       .  A
O65          C73   1.275       .  A
O66          C75   1.277       .  A
O67          C76   1.272       .  A
O68          C75   1.271   1_455  A
O69          C76   1.273       .  A
O70          C77   1.275       .  A
O71          C77   1.274   1_455  A
C72         C349   1.485       .  S
C73         C360   1.478       .  S
C74         C377   1.470       .  S
C75         C514   1.480       .  S
C76         C332   1.486       .  S
C77         C531   1.482       .  S
Zn78         O82   1.947       .  S
Zn78         O83   2.015       .  S
Zn78         O87   2.010       .  S
Zn78         O94   2.021       .  S
Zn79         O82   1.961       .  S
Zn79         O84   2.003       .  S
Zn79         O86   2.012       .  S
Zn79         O90   1.986       .  S
Zn80         O82   1.953       .  S
Zn80         O85   2.024       .  S
Zn80         O88   2.014       .  S
Zn80         O91   2.006       .  S
Zn81         O82   1.947       .  S
Zn81         O89   2.015       .  S
Zn81         O92   2.014       .  S
Zn81         O93   1.995       .  S
O83          C95   1.274       .  A
O84          C96   1.272       .  A
O85          C97   1.274       .  A
O86          C95   1.273       .  A
O87          C97   1.274       .  A
O88          C96   1.275       .  A
O89          C98   1.272       .  A
O90          C99   1.268       .  A
O91          C98   1.272       .  A
O92          C99   1.274       .  A
O93         C100   1.272       .  A
O94         C100   1.273       .  A
C95         C559   1.482       .  S
C96         C570   1.473       .  S
C97         C419   1.478       .  S
C98         C363   1.478       .  S
C99         C318   1.480       .  S
C100        C346   1.487       .  S
Zn101       O105   1.984       .  S
Zn101       O106   2.068       .  S
Zn101       O110   2.050       .  S
Zn101       O117   2.008       .  S
Zn102       O105   1.937       .  S
Zn102       O107   1.975       .  S
Zn102       O109   1.973       .  S
Zn102       O113   2.010       .  S
Zn103       O105   1.936       .  S
Zn103       O108   2.010       .  S
Zn103       O111   1.992       .  S
Zn103       O114   2.017       .  S
Zn104       O105   1.953       .  S
Zn104       O112   2.047       .  S
Zn104       O115   2.030       .  S
Zn104       O116   2.031       .  S
O106        C118   1.278       .  A
O107        C119   1.267       .  A
O108        C120   1.274       .  A
O109        C118   1.271       .  A
O110        C120   1.277       .  A
O111        C119   1.272       .  A
O112        C121   1.275       .  A
O113        C122   1.270       .  A
O114        C121   1.274       .  A
O115        C122   1.275       .  A
O116        C123   1.280       .  A
O117        C123   1.274       .  A
C118        C598   1.493       .  S
C119        C276   1.467       .  S
C120        C615   1.483       .  S
C121        C290   1.483       .  S
C122        C307   1.479       .  S
C123        C542   1.484   1_545  S
Zn124       O128   1.954       .  S
Zn124       O129   2.017       .  S
Zn124       O133   2.006       .  S
Zn124       O140   2.011       .  S
Zn125       O128   1.964       .  S
Zn125       O130   2.028       .  S
Zn125       O132   1.990       .  S
Zn125       O136   2.020       .  S
Zn126       O128   1.952   1_545  S
Zn126       O131   2.036       .  S
Zn126       O134   2.015   1_545  S
Zn126       O137   2.021       .  S
Zn127       O128   1.950   1_545  S
Zn127       O135   2.010       .  S
Zn127       O138   2.019   1_545  S
Zn127       O139   2.017       .  S
O129        C141   1.275       .  A
O130        C142   1.274       .  A
O131        C143   1.275       .  A
O132        C141   1.269       .  A
O133        C143   1.272   1_565  A
O134        C142   1.275       .  A
O135        C144   1.273       .  A
O136        C145   1.274       .  A
O137        C144   1.275       .  A
O138        C145   1.275       .  A
O139        C146   1.274       .  A
O140        C146   1.271   1_565  A
C141        C262   1.485       .  S
C142        C475   1.483       .  S
C143        C293   1.475       .  S
C144        C503   1.474       .  S
C145        C489   1.479       .  S
C146        C304   1.484       .  S
C147        C279   1.460       .  S
C147        N148   1.356       .  A
C147        N152   1.356       .  A
N148        C149   1.357       .  A
C149        C335   1.489       .  S
C149        N150   1.360       .  A
N150        C151   1.357       .  A
C151        C248   1.471       .  S
C151        N152   1.352       .  A
C153        C265   1.490       .  S
C153        N154   1.358       .  A
C153        N158   1.353       .  A
N154        C155   1.356       .  A
C155        C234   1.477       .  S
C155        N156   1.359       .  A
N156        C157   1.361       .  A
C157        C321   1.485       .  S
C157        N158   1.361       .  A
Zn159       O163   2.000       .  S
Zn159       O164   2.044       .  S
Zn159       O168   2.046       .  S
Zn159       O175   2.018       .  S
Zn160       O163   1.941       .  S
Zn160       O165   2.028       .  S
Zn160       O167   1.998       .  S
Zn160       O171   2.006       .  S
Zn161       O163   1.928       .  S
Zn161       O166   1.986       .  S
Zn161       O169   2.014       .  S
Zn161       O172   2.022       .  S
Zn162       O163   1.958       .  S
Zn162       O170   2.031       .  S
Zn162       O173   2.019       .  S
Zn162       O174   2.006       .  S
O164        C176   1.275       .  A
O165        C177   1.272       .  A
O166        C178   1.273       .  A
O167        C176   1.275       .  A
O168        C178   1.276       .  A
O169        C177   1.273       .  A
O170        C179   1.273       .  A
O171        C180   1.274       .  A
O172        C179   1.274       .  A
O173        C180   1.272       .  A
O174        C181   1.277       .  A
O175        C181   1.273       .  A
C176        C388   1.487       .  S
C177        C237   1.480       .  S
C178        C402   1.489       .  S
C179        C209   1.484       .  S
C180        C223   1.485       .  S
C181        C587   1.486       .  S
Zn182       O186   1.943       .  S
Zn182       O187   1.977       .  S
Zn182       O191   2.006       .  S
Zn182       O198   1.991       .  S
Zn183       O186   1.974       .  S
Zn183       O188   2.056       .  S
Zn183       O190   2.060       .  S
Zn183       O194   2.037       .  S
Zn184       O186   1.950       .  S
Zn184       O189   2.004       .  S
Zn184       O192   2.005       .  S
Zn184       O195   2.014       .  S
Zn185       O186   1.968       .  S
Zn185       O193   2.043       .  S
Zn185       O196   2.046       .  S
Zn185       O197   2.030       .  S
O187        C199   1.268       .  A
O188        C200   1.279       .  A
O189        C201   1.271       .  A
O190        C199   1.279       .  A
O191        C201   1.270       .  A
O192        C200   1.273       .  A
O193        C202   1.276       .  A
O194        C203   1.276       .  A
O195        C202   1.274       .  A
O196        C203   1.280       .  A
O197        C204   1.274       .  A
O198        C204   1.272       .  A
C199        C447   1.490       .  S
C200        C433   1.482       .  S
C201        C251   1.473       .  S
C202        C206   1.484       .  S
C203        C461   1.494       .  S
C204        C220   1.480       .  S
C205        C206   1.400       .  A
C205        C210   1.402       .  A
C205        H212   1.082       .  S
C206        C207   1.410       .  A
C207        C208   1.400       .  A
C207        N214   1.422       .  S
C208        C209   1.400       .  A
C208        H213   1.082       .  S
C209        C210   1.412       .  A
C210        N211   1.422       .  S
N211        O215   1.261       .  A
N211        O216   1.262       .  A
N214        O218   1.262       .  A
N214        O217   1.261       .  A
C219        C220   1.406       .  A
C219        C224   1.399       .  A
C219        H226   1.082       .  S
C220        C845   1.411       .  A
C221        C222   1.399       .  A
C221        C844   1.410       .  A
C221        N228   1.425       .  S
C222        C223   1.404   1_556  A
C222        H227   1.082       .  S
C223        C848   1.414       .  A
C224        C847   1.411       .  A
C224        N225   1.428       .  S
N225        O229   1.262       .  A
N225        O854   1.262       .  A
N228        O232   1.262       .  A
N228        O855   1.261       .  A
O230        N849   1.260       .  A
O231        N852   1.260       .  A
C233        C234   1.404       .  A
C233        C238   1.402       .  A
C233        H240   1.082       .  S
C234        C235   1.409       .  A
C235        C236   1.398       .  A
C235        N242   1.427       .  S
C236        C237   1.403       .  A
C236        H241   1.082       .  S
C237        C238   1.412       .  A
C238        N239   1.428       .  S
N239        O243   1.262       .  A
N239        O244   1.262       .  A
N242        O246   1.262       .  A
N242        O245   1.261       .  A
C247        C248   1.401       .  A
C247        C252   1.396       .  A
C247        H254   1.082       .  S
C248        C249   1.412       .  A
C249        C250   1.399       .  A
C249        N256   1.429       .  S
C250        C251   1.403       .  A
C250        H255   1.082       .  S
C251        C252   1.410       .  A
C252        N253   1.428       .  S
N253        O257   1.262       .  A
N253        O258   1.262       .  A
N256        O260   1.262       .  A
N256        O259   1.262       .  A
C261        C262   1.404       .  A
C261        C266   1.400       .  A
C261        H268   1.082       .  S
C262        C263   1.415       .  A
C263        C264   1.394       .  A
C263        N270   1.428       .  S
C264        C265   1.404       .  A
C264        H269   1.082       .  S
C265        C266   1.419       .  A
C266        N267   1.429       .  S
N267        O271   1.262       .  A
N267        O272   1.262       .  A
N270        O274   1.261       .  A
N270        O273   1.261       .  A
C275        C276   1.402       .  A
C275        C280   1.393       .  A
C275        H282   1.082       .  S
C276        C277   1.412       .  A
C277        C278   1.394       .  A
C277        N284   1.429       .  S
C278        C279   1.399       .  A
C278        H283   1.082       .  S
C279        C280   1.407       .  A
C280        N281   1.428       .  S
N281        O285   1.262       .  A
N281        O286   1.261       .  A
N284        O288   1.262       .  A
N284        O287   1.262       .  A
C289        C294   1.398       .  A
C289        C914   1.402   1_554  A
C289        H296   1.081       .  S
C290        C291   1.414       .  A
C290        C913   1.402       .  A
C291        C292   1.407       .  A
C291        N298   1.429       .  S
C292        C917   1.404       .  A
C292        H297   1.081       .  S
C293        C294   1.410       .  A
C293        C916   1.402   1_554  A
C294        N295   1.429       .  S
N295        O299   1.262       .  A
N295        O300   1.262       .  A
N298        O302   1.262       .  A
N298        O301   1.262       .  A
C303        C304   1.405       .  A
C303        C308   1.400       .  A
C303        H310   1.082       .  S
C304        C305   1.414       .  A
C305        C306   1.400       .  A
C305        N312   1.428   1_545  S
C306        C307   1.401       .  A
C306        H311   1.082       .  S
C307        C308   1.413       .  A
C308        N309   1.429       .  S
N309        O313   1.262       .  A
N309        O314   1.262       .  A
N312        O316   1.262       .  A
N312        O315   1.262       .  A
C317        C318   1.403       .  A
C317        C322   1.398       .  A
C317        H324   1.081       .  S
C318        C319   1.413       .  A
C319        C320   1.392       .  A
C319        N326   1.426       .  S
C320        C321   1.402       .  A
C320        H325   1.079       .  S
C321        C322   1.413       .  A
C322        N323   1.425       .  S
N323        O327   1.262       .  A
N323        O328   1.262       .  A
N326        O330   1.260       .  A
N326        O329   1.262       .  A
C331        C332   1.404       .  A
C331        C336   1.395       .  A
C331        H338   1.081       .  S
C332        C333   1.413       .  A
C333        C334   1.400       .  A
C333        N340   1.428       .  S
C334        C335   1.408       .  A
C334        H339   1.081       .  S
C335        C336   1.415       .  A
C336        N337   1.428       .  S
N337        O341   1.262       .  A
N337        O342   1.262       .  A
N340        O344   1.262       .  A
N340        O343   1.262       .  A
C345        C346   1.408       .  A
C345        C974   1.399       .  A
C345        H352   1.081       .  S
C346        C347   1.413   1_554  A
C347        C972   1.397       .  A
C347        N978   1.429       .  S
C348        C349   1.408       .  A
C348        C971   1.397       .  A
C348        H353   1.081       .  S
C349        C350   1.411       .  A
C350        C969   1.398       .  A
C350        N975   1.429       .  S
N351        C974   1.428       .  S
N351        O355   1.262       .  A
N351        O980   1.262       .  A
N354        C971   1.429       .  S
N354        O982   1.262       .  A
N354        O357   1.262       .  A
O356        N975   1.262       .  A
O358        N978   1.262       .  A
C359        C360   1.403       .  A
C359        C364   1.398       .  A
C359        H366   1.081       .  S
C360        C361   1.413       .  A
C361        C362   1.399       .  A
C361        N368   1.430       .  S
C362        C363   1.404       .  A
C362        H367   1.081       .  S
C363        C364   1.412       .  A
C364        N365   1.429       .  S
N365        O369   1.262       .  A
N365        O370   1.262       .  A
N368        O372   1.262       .  A
N368        O371   1.262       .  A
C373        C374   1.404       .  A
C373        C378   1.401       .  A
C373        H380   1.082       .  S
C374        C375   1.413       .  A
C375        C376   1.394       .  A
C375        N382   1.428       .  S
C376        C377   1.398       .  A
C376        H381   1.083       .  S
C377        C378   1.411       .  A
C378        N379   1.428       .  S
N379        O383   1.262       .  A
N379        O384   1.262       .  A
N382        O386   1.262       .  A
N382        O385   1.262       .  A
C387        C392   1.393       .  A
C387       C1012   1.404       .  A
C387        H394   1.082       .  S
C388        C389   1.417       .  A
C388       C1011   1.404   1_554  A
C389       C1014   1.408   1_554  A
C389        N396   1.428       .  S
C390        C391   1.401       .  A
C390       C1013   1.407       .  A
C390        H395   1.082       .  S
C391        C392   1.404       .  A
C392        N393   1.428       .  S
N393        O397   1.261       .  A
N393        O398   1.261       .  A
N396        O400   1.262       .  A
N396        O399   1.262       .  A
C401        C402   1.407       .  A
C401        C406   1.391       .  A
C401        H408   1.081       .  S
C402        C403   1.417       .  A
C403        C404   1.407       .  A
C403        N410   1.428       .  S
C404        C405   1.404       .  A
C404        H409   1.082       .  S
C405        C406   1.404       .  A
C406        N407   1.427       .  S
N407        O411   1.261       .  A
N407        O412   1.262       .  A
N410        O414   1.262       .  A
N410        O413   1.262       .  A
C415        C416   1.409       .  A
C415        C420   1.402       .  A
C415        H422   1.081       .  S
C416        C417   1.413       .  A
C417        C418   1.398   1_655  A
C417        N424   1.427       .  S
C418        C419   1.401       .  A
C418        H423   1.082       .  S
C419        C420   1.411   1_455  A
C420        N421   1.429       .  S
N421        O425   1.262   1_655  A
N421        O426   1.262       .  A
N424        O428   1.261       .  A
N424        O427   1.262   1_655  A
C429        C430   1.403       .  A
C429        C434   1.400       .  A
C429        H436   1.082       .  S
C430        C431   1.409       .  A
C431        C432   1.406       .  A
C431        N438   1.427       .  S
C432        C433   1.405       .  A
C432        H437   1.081       .  S
C433        C434   1.413       .  A
C434        N435   1.430       .  S
N435        O439   1.262       .  A
N435        O440   1.262       .  A
N438        O442   1.262       .  A
N438        O441   1.262       .  A
C443        C444   1.404       .  A
C443        C448   1.397       .  A
C443        H450   1.082       .  S
C444        C445   1.418       .  A
C445       C1070   1.407   1_554  A
C445        N452   1.428       .  S
C446        C447   1.405       .  A
C446       C1069   1.406       .  A
C446        H451   1.082       .  S
C447       C1072   1.417       .  A
C448       C1071   1.418   1_554  A
C448        N449   1.430       .  S
N449        O453   1.262       .  A
N449        O454   1.262       .  A
N452       O1080   1.262       .  A
N452        O455   1.262   1_554  A
O456       N1076   1.261       .  A
C457        C458   1.401       .  A
C457        C462   1.403       .  A
C457        H464   1.082       .  S
C458        C459   1.413       .  A
C459        C460   1.403       .  A
C459        N466   1.429       .  S
C460        C461   1.406       .  A
C460        H465   1.082       .  S
C461        C462   1.418       .  A
C462        N463   1.428       .  S
N463        O467   1.262       .  A
N463        O468   1.262       .  A
N466        O470   1.262       .  A
N466        O469   1.262       .  A
C471        C472   1.406       .  A
C471       C1100   1.400       .  A
C471        H478   1.081       .  S
C472        C473   1.413       .  A
C473        C474   1.402       .  A
C473        N480   1.428       .  S
C474       C1099   1.404       .  A
C474        H479   1.081       .  S
C475        C476   1.412       .  A
C475       C1098   1.403   1_554  A
C476       C1095   1.400   1_554  A
C476        N477   1.428       .  S
N477        O481   1.262       .  A
N477        O482   1.262       .  A
N480        O484   1.262       .  A
N480        O483   1.261       .  A
C485        C486   1.405       .  A
C485        C490   1.398       .  A
C485        H492   1.082       .  S
C486        C487   1.415       .  A
C487        C488   1.403       .  A
C487        N494   1.428       .  S
C488        C489   1.403       .  A
C488        H493   1.082       .  S
C489        C490   1.410       .  A
C490        N491   1.428       .  S
N491        O495   1.261       .  A
N491        O496   1.262       .  A
N494        O498   1.261       .  A
N494        O497   1.262       .  A
C499        C500   1.403       .  A
C499        C504   1.394       .  A
C499        H506   1.083       .  S
C500        C501   1.414       .  A
C501        C502   1.401       .  A
C501        N508   1.430       .  S
C502        C503   1.404       .  A
C502        H507   1.083       .  S
C503        C504   1.409       .  A
C504        N505   1.428       .  S
N505        O509   1.262       .  A
N505        O510   1.262       .  A
N508        O512   1.262       .  A
N508        O511   1.262       .  A
C513        C514   1.402       .  A
C513        C518   1.401       .  A
C513        H520   1.082       .  S
C514        C515   1.414       .  A
C515        C516   1.397       .  A
C515        N522   1.428   1_655  S
C516        C517   1.400       .  A
C516        H521   1.082   1_655  S
C517        C518   1.415       .  A
C518        N519   1.429       .  S
N519        O523   1.262       .  A
N519        O524   1.262       .  A
N522        O526   1.262       .  A
N522        O525   1.261       .  A
C527        C528   1.397       .  A
C527       C1156   1.397       .  A
C527        H534   1.084       .  S
C528        C529   1.407       .  A
C529        C530   1.406       .  A
C529        N536   1.430   1_655  S
C530       C1155   1.408   1_554  A
C530        H535   1.084   1_655  S
C531        C532   1.414       .  A
C531       C1154   1.408       .  A
C532       C1151   1.397       .  A
C532        N533   1.429       .  S
N533        O537   1.262       .  A
N533        O538   1.262       .  A
N536        O540   1.262       .  A
N536        O539   1.262   1_455  A
C541        C542   1.404       .  A
C541        C546   1.398       .  A
C541        H548   1.082       .  S
C542        C543   1.417       .  A
C543        C544   1.398       .  A
C543        N550   1.427   1_565  S
C544        C545   1.397       .  A
C544        H549   1.082       .  S
C545        C546   1.410       .  A
C546        N547   1.428       .  S
N547        O551   1.262       .  A
N547        O552   1.262       .  A
N550        O554   1.260       .  A
N550        O553   1.262       .  A
C555        C556   1.403       .  A
C555        C560   1.395       .  A
C555        H562   1.082       .  S
C556        C557   1.414       .  A
C557       C1182   1.401       .  A
C557        N564   1.427       .  S
C558        C559   1.403   1_556  A
C558       C1181   1.402       .  A
C558        H563   1.082       .  S
C559       C1184   1.410       .  A
C560       C1183   1.411       .  A
C560        N561   1.423       .  S
N561        O565   1.259       .  A
N561       O1190   1.262       .  A
N564        O568   1.262       .  A
N564        O567   1.262       .  A
O566       N1185   1.262       .  A
C569        C570   1.401       .  A
C569        C574   1.399       .  A
C569        H576   1.082       .  S
C570        C571   1.411       .  A
C571        C572   1.396       .  A
C571        N578   1.430       .  S
C572        C573   1.404       .  A
C572        H577   1.082       .  S
C573        C574   1.412       .  A
C574        N575   1.428       .  S
N575        O579   1.262       .  A
N575        O580   1.261       .  A
N578        O582   1.262       .  A
N578        O581   1.262       .  A
C583        C584   1.400       .  A
C583        C588   1.404       .  A
C583        H590   1.082       .  S
C584        C585   1.404       .  A
C585        C586   1.391       .  A
C585        N592   1.428       .  S
C586        C587   1.405       .  A
C586        H591   1.081       .  S
C587        C588   1.420       .  A
C588        N589   1.429       .  S
N589        O593   1.262       .  A
N589        O594   1.262       .  A
N592        O596   1.262       .  A
N592        O595   1.261       .  A
C597        C598   1.410       .  A
C597        C602   1.392       .  A
C597        H604   1.085       .  S
C598        C599   1.417       .  A
C599        C600   1.406       .  A
C599        N606   1.428       .  S
C600        C601   1.403       .  A
C600        H605   1.086       .  S
C601        C602   1.406       .  A
C602        N603   1.430       .  S
N603        O607   1.262       .  A
N603        O608   1.262       .  A
N606        O610   1.262       .  A
N606        O609   1.262       .  A
C611        C612   1.399       .  A
C611       C1240   1.403   1_554  A
C611        H618   1.090       .  S
C612        C613   1.406       .  A
C613        C614   1.397   1_554  A
C613        N620   1.427       .  S
C614       C1239   1.403       .  A
C614        H619   1.091       .  S
C615        C616   1.415       .  A
C615       C1238   1.404       .  A
C616       C1235   1.403       .  A
C616        N617   1.425       .  S
N617        O621   1.261       .  A
N617        O622   1.262       .  A
N620        O624   1.261       .  A
N620        O623   1.262       .  A
C625        C626   1.402       .  A
C625        C630   1.404       .  A
C625       C1208   1.477       .  S
C626        C627   1.398       .  A
C626        H631   1.084       .  S
C627        C628   1.401       .  A
C627       C1236   1.472       .  S
C628        C629   1.404       .  A
C628        H632   1.086       .  S
C629        C630   1.403       .  A
C629       C1225   1.481       .  S
C630        H633   1.081       .  S
C634        C635   1.398       .  A
C634        C639   1.401       .  A
C634       C1169   1.479       .  S
C635        C636   1.404       .  A
C635        H640   1.084       .  S
C636        C637   1.406       .  A
C636       C1197   1.483       .  S
C637        C638   1.406       .  A
C637        H641   1.081       .  S
C638        C639   1.408       .  A
C638       C1180   1.491       .  S
C639        H642   1.084       .  S
C643        C644   1.402       .  A
C643        C648   1.407       .  A
C643       C1124   1.481       .  S
C644        C645   1.399       .  A
C644        H649   1.082       .  S
C645        C646   1.401       .  A
C645       C1152   1.475       .  S
C646        C647   1.405       .  A
C646        H650   1.084       .  S
C647        C648   1.401       .  A
C647       C1141   1.485       .  S
C648        H651   1.083       .  S
C652        C653   1.403       .  A
C652        C657   1.403       .  A
C652       C1082   1.486       .  S
C653        C654   1.409       .  A
C653        H658   1.083       .  S
C654        C655   1.407       .  A
C654       C1110   1.492       .  S
C655        C656   1.407       .  A
C655        H659   1.080       .  S
C656        C657   1.407       .  A
C656       C1096   1.489       .  S
C657        H660   1.084       .  S
C661        C662   1.411       .  A
C661        C666   1.414       .  A
C661       C1040   1.498       .  S
C662        C663   1.404       .  A
C662        H667   1.080       .  S
C663        C664   1.407       .  A
C663       C1068   1.495       .  S
C664        C665   1.405       .  A
C664        H668   1.084       .  S
C665        C666   1.404       .  A
C665       C1054   1.498       .  S
C666        H669   1.080       .  S
C670        C671   1.405       .  A
C670        C675   1.407       .  A
C670        C998   1.485       .  S
C671        C672   1.397       .  A
C671        H676   1.081       .  S
C672        C673   1.402       .  A
C672       C1015   1.475       .  S
C673        C674   1.403       .  A
C673        H677   1.084       .  S
C674        C675   1.399       .  A
C674       C1029   1.475       .  S
C675        H678   1.084       .  S
Zn679       O683   1.955       .  S
Zn679       O684   2.038       .  S
Zn679       O688   2.003       .  S
Zn679       O695   2.032       .  S
Zn680       O683   1.954       .  S
Zn680       O685   2.011       .  S
Zn680       O687   1.980       .  S
Zn680       O691   2.013   1_455  S
Zn681       O683   1.955       .  S
Zn681       O686   2.008       .  S
Zn681       O689   2.025       .  S
Zn681       O692   1.995       .  S
Zn682       O683   1.946   1_655  S
Zn682       O690   2.039       .  S
Zn682       O693   1.997       .  S
Zn682       O694   2.031       .  S
O684        C696   1.275       .  A
O685        C697   1.272       .  A
O686        C698   1.272       .  A
O687        C696   1.271       .  A
O688        C698   1.275       .  A
O689        C697   1.276       .  A
O690        C699   1.277       .  A
O691        C700   1.272       .  A
O692        C699   1.271   1_455  A
O693        C700   1.273       .  A
O694        C701   1.275       .  A
O695        C701   1.274   1_455  A
C696        C973   1.487       .  S
C697        C984   1.484       .  S
C698       C1001   1.472       .  S
C699       C1138   1.481       .  S
C700        C956   1.483       .  S
C701       C1155   1.482       .  S
Zn702       O706   1.946       .  S
Zn702       O707   2.014       .  S
Zn702       O711   2.012       .  S
Zn702       O718   2.024       .  S
Zn703       O706   1.964       .  S
Zn703       O708   2.007       .  S
Zn703       O710   2.012       .  S
Zn703       O714   1.987       .  S
Zn704       O706   1.953       .  S
Zn704       O709   2.027       .  S
Zn704       O712   2.016       .  S
Zn704       O715   2.017       .  S
Zn705       O706   1.948       .  S
Zn705       O713   2.022       .  S
Zn705       O716   2.016       .  S
Zn705       O717   1.992       .  S
O707        C719   1.274       .  A
O708        C720   1.273       .  A
O709        C721   1.274       .  A
O710        C719   1.273       .  A
O711        C721   1.275       .  A
O712        C720   1.275       .  A
O713        C722   1.273       .  A
O714        C723   1.268       .  A
O715        C722   1.274       .  A
O716        C723   1.275       .  A
O717        C724   1.272       .  A
O718        C724   1.274       .  A
C719       C1183   1.482       .  S
C720       C1194   1.475       .  S
C721       C1043   1.482       .  S
C722        C987   1.484       .  S
C723        C942   1.477       .  S
C724        C970   1.486       .  S
Zn725       O729   1.984       .  S
Zn725       O730   2.075       .  S
Zn725       O734   2.050       .  S
Zn725       O741   2.017       .  S
Zn726       O729   1.939       .  S
Zn726       O731   1.985       .  S
Zn726       O733   1.968       .  S
Zn726       O737   2.007       .  S
Zn727       O729   1.934       .  S
Zn727       O732   2.010       .  S
Zn727       O735   1.998       .  S
Zn727       O738   2.014       .  S
Zn728       O729   1.953       .  S
Zn728       O736   2.036       .  S
Zn728       O739   2.022       .  S
Zn728       O740   2.026       .  S
O730        C742   1.279       .  A
O731        C743   1.267       .  A
O732        C744   1.274       .  A
O733        C742   1.271       .  A
O734        C744   1.277       .  A
O735        C743   1.272       .  A
O736        C745   1.274       .  A
O737        C746   1.270       .  A
O738        C745   1.274       .  A
O739        C746   1.274       .  A
O740        C747   1.278       .  A
O741        C747   1.275       .  A
C742       C1222   1.493       .  S
C743        C900   1.473       .  S
C744       C1239   1.482       .  S
C745        C914   1.481       .  S
C746        C931   1.476       .  S
C747       C1166   1.483   1_545  S
Zn748       O752   1.954       .  S
Zn748       O753   2.012       .  S
Zn748       O757   2.010       .  S
Zn748       O764   2.005       .  S
Zn749       O752   1.966       .  S
Zn749       O754   2.026       .  S
Zn749       O756   1.991       .  S
Zn749       O760   2.023       .  S
Zn750       O752   1.955   1_545  S
Zn750       O755   2.048       .  S
Zn750       O758   2.020   1_545  S
Zn750       O761   2.021       .  S
Zn751       O752   1.950   1_545  S
Zn751       O759   2.011       .  S
Zn751       O762   2.026   1_545  S
Zn751       O763   2.012       .  S
O753        C765   1.275       .  A
O754        C766   1.275       .  A
O755        C767   1.276       .  A
O756        C765   1.269       .  A
O757        C767   1.272   1_565  A
O758        C766   1.276       .  A
O759        C768   1.273       .  A
O760        C769   1.274       .  A
O761        C768   1.275       .  A
O762        C769   1.276       .  A
O763        C770   1.273       .  A
O764        C770   1.270   1_565  A
C765        C886   1.484       .  S
C766       C1099   1.484       .  S
C767        C917   1.481       .  S
C768       C1127   1.474       .  S
C769       C1113   1.483       .  S
C770        C928   1.480       .  S
C771        C903   1.462       .  S
C771        N772   1.357       .  A
C771        N776   1.357       .  A
N772        C773   1.356       .  A
C773        C959   1.489       .  S
C773        N774   1.359       .  A
N774        C775   1.357       .  A
C775        C872   1.476       .  S
C775        N776   1.354       .  A
C777        C889   1.489       .  S
C777        N778   1.357       .  A
C777        N782   1.354       .  A
N778        C779   1.356       .  A
C779        C858   1.477       .  S
C779        N780   1.358       .  A
N780        C781   1.361       .  A
C781        C945   1.482       .  S
C781        N782   1.361       .  A
Zn783       O787   1.993       .  S
Zn783       O788   2.043       .  S
Zn783       O792   2.055       .  S
Zn783       O799   2.011       .  S
Zn784       O787   1.940       .  S
Zn784       O789   2.021       .  S
Zn784       O791   2.001       .  S
Zn784       O795   1.988       .  S
Zn785       O787   1.924       .  S
Zn785       O790   1.973       .  S
Zn785       O793   2.011       .  S
Zn785       O796   2.013       .  S
Zn786       O787   1.965       .  S
Zn786       O794   2.033       .  S
Zn786       O797   2.023       .  S
Zn786       O798   2.017       .  S
O788        C800   1.275       .  A
O789        C801   1.271       .  A
O790        C802   1.272       .  A
O791        C800   1.275       .  A
O792        C802   1.276       .  A
O793        C801   1.272       .  A
O794        C803   1.273       .  A
O795        C804   1.272       .  A
O796        C803   1.274       .  A
O797        C804   1.273       .  A
O798        C805   1.277       .  A
O799        C805   1.273       .  A
C800       C1012   1.485       .  S
C801        C861   1.476       .  S
C802       C1026   1.487       .  S
C803        C833   1.494       .  S
C804        C847   1.479       .  S
C805       C1211   1.478       .  S
Zn806       O810   1.933       .  S
Zn806       O811   1.979       .  S
Zn806       O815   2.012       .  S
Zn806       O822   1.994       .  S
Zn807       O810   1.971       .  S
Zn807       O812   2.075       .  S
Zn807       O814   2.072       .  S
Zn807       O818   2.037       .  S
Zn808       O810   1.934       .  S
Zn808       O813   2.017       .  S
Zn808       O816   2.002       .  S
Zn808       O819   2.012       .  S
Zn809       O810   1.962       .  S
Zn809       O817   2.039       .  S
Zn809       O820   2.031       .  S
Zn809       O821   2.030       .  S
O811        C823   1.269       .  A
O812        C824   1.283       .  A
O813        C825   1.273       .  A
O814        C823   1.282       .  A
O815        C825   1.271       .  A
O816        C824   1.273       .  A
O817        C826   1.275       .  A
O818        C827   1.276       .  A
O819        C826   1.274       .  A
O820        C827   1.279       .  A
O821        C828   1.275       .  A
O822        C828   1.273       .  A
C823       C1071   1.492       .  S
C824       C1057   1.499       .  S
C825        C875   1.476       .  S
C826        C830   1.495       .  S
C827       C1085   1.490       .  S
C828        C844   1.482       .  S
C829        C830   1.408       .  A
C829        C834   1.402       .  A
C829        H836   1.082       .  S
C830        C831   1.415       .  A
C831        C832   1.401       .  A
C831        N838   1.428       .  S
C832        C833   1.407       .  A
C832        H837   1.082       .  S
C833        C834   1.415       .  A
C834        N835   1.429       .  S
N835        O839   1.262       .  A
N835        O840   1.262       .  A
N838        O842   1.260       .  A
N838        O841   1.261       .  A
C843        C844   1.401   1_554  A
C843        C848   1.397       .  A
C843        H850   1.082       .  S
C845        C846   1.395       .  A
C845        N852   1.425       .  S
C846        C847   1.402       .  A
C846        H851   1.082       .  S
C848        N849   1.426       .  S
N849        O853   1.262       .  A
N852        O856   1.262       .  A
C857        C858   1.405       .  A
C857        C862   1.400       .  A
C857        H864   1.082       .  S
C858        C859   1.410       .  A
C859        C860   1.399       .  A
C859        N866   1.427       .  S
C860        C861   1.402       .  A
C860        H865   1.082       .  S
C861        C862   1.410       .  A
C862        N863   1.428       .  S
N863        O867   1.262       .  A
N863        O868   1.262       .  A
N866        O870   1.262       .  A
N866        O869   1.261       .  A
C871        C872   1.403       .  A
C871        C876   1.398       .  A
C871        H878   1.082       .  S
C872        C873   1.412       .  A
C873        C874   1.400       .  A
C873        N880   1.429       .  S
C874        C875   1.403       .  A
C874        H879   1.082       .  S
C875        C876   1.411       .  A
C876        N877   1.429       .  S
N877        O881   1.262       .  A
N877        O882   1.262       .  A
N880        O884   1.262       .  A
N880        O883   1.262       .  A
C885        C886   1.404       .  A
C885        C890   1.399       .  A
C885        H892   1.082       .  S
C886        C887   1.415       .  A
C887        C888   1.394       .  A
C887        N894   1.428       .  S
C888        C889   1.404       .  A
C888        H893   1.082       .  S
C889        C890   1.417       .  A
C890        N891   1.428       .  S
N891        O895   1.262       .  A
N891        O896   1.262       .  A
N894        O898   1.262       .  A
N894        O897   1.261       .  A
C899        C900   1.403       .  A
C899        C904   1.393       .  A
C899        H906   1.082       .  S
C900        C901   1.414       .  A
C901        C902   1.397       .  A
C901        N908   1.429       .  S
C902        C903   1.399       .  A
C902        H907   1.082       .  S
C903        C904   1.406       .  A
C904        N905   1.428       .  S
N905        O909   1.262       .  A
N905        O910   1.261       .  A
N908        O912   1.262       .  A
N908        O911   1.262       .  A
C913        C918   1.400       .  A
C913        H920   1.081       .  S
C914        C915   1.414       .  A
C915        C916   1.405       .  A
C915        N922   1.429       .  S
C916        H921   1.081       .  S
C917        C918   1.412       .  A
C918        N919   1.429       .  S
N919        O923   1.262       .  A
N919        O924   1.262       .  A
N922        O926   1.262   1_545  A
N922        O925   1.262       .  A
C927        C928   1.405       .  A
C927        C932   1.399       .  A
C927        H934   1.082       .  S
C928        C929   1.413       .  A
C929        C930   1.399       .  A
C929        N936   1.428   1_545  S
C930        C931   1.401       .  A
C930        H935   1.082       .  S
C931        C932   1.412       .  A
C932        N933   1.429       .  S
N933        O937   1.262       .  A
N933        O938   1.262       .  A
N936        O940   1.262       .  A
N936        O939   1.262       .  A
C941        C942   1.400       .  A
C941        C946   1.397       .  A
C941        H948   1.082       .  S
C942        C943   1.412       .  A
C943        C944   1.393       .  A
C943        N950   1.424       .  S
C944        C945   1.401       .  A
C944        H949   1.081       .  S
C945        C946   1.413       .  A
C946        N947   1.424       .  S
N947        O951   1.262       .  A
N947        O952   1.262       .  A
N950        O954   1.261       .  A
N950        O953   1.262       .  A
C955        C956   1.404       .  A
C955        C960   1.396       .  A
C955        H962   1.081       .  S
C956        C957   1.412       .  A
C957        C958   1.398       .  A
C957        N964   1.428       .  S
C958        C959   1.408       .  A
C958        H963   1.080       .  S
C959        C960   1.416       .  A
C960        N961   1.428       .  S
N961        O965   1.262       .  A
N961        O966   1.262       .  A
N964        O968   1.262       .  A
N964        O967   1.262       .  A
C969        C970   1.408       .  A
C969        H976   1.081       .  S
C970        C971   1.412       .  A
C972        C973   1.408       .  A
C972        H977   1.081       .  S
C973        C974   1.412   1_556  A
N975        O979   1.262       .  A
N978        O981   1.262       .  A
C983        C984   1.404       .  A
C983        C988   1.401       .  A
C983        H990   1.081       .  S
C984        C985   1.414       .  A
C985        C986   1.400       .  A
C985        N992   1.429       .  S
C986        C987   1.404       .  A
C986        H991   1.081       .  S
C987        C988   1.414       .  A
C988        N989   1.429       .  S
N989        O993   1.262       .  A
N989        O994   1.262       .  A
N992        O996   1.262       .  A
N992        O995   1.262       .  A
C997        C998   1.406       .  A
C997       C1002   1.401       .  A
C997       H1004   1.082       .  S
C998        C999   1.415       .  A
C999       C1000   1.392       .  A
C999       N1006   1.429       .  S
C1000      C1001   1.398       .  A
C1000      H1005   1.083       .  S
C1001      C1002   1.411       .  A
C1002      N1003   1.428       .  S
N1003      O1007   1.262       .  A
N1003      O1008   1.262       .  A
N1006      O1010   1.262       .  A
N1006      O1009   1.262       .  A
C1011      C1016   1.391       .  A
C1011      H1018   1.082       .  S
C1012      C1013   1.417       .  A
C1013      N1020   1.427       .  S
C1014      C1015   1.403       .  A
C1014      H1019   1.082       .  S
C1015      C1016   1.405       .  A
C1016      N1017   1.428       .  S
N1017      O1021   1.261       .  A
N1017      O1022   1.261       .  A
N1020      O1024   1.261       .  A
N1020      O1023   1.262       .  A
C1025      C1026   1.406       .  A
C1025      C1030   1.389       .  A
C1025      H1032   1.082       .  S
C1026      C1027   1.416       .  A
C1027      C1028   1.409       .  A
C1027      N1034   1.428       .  S
C1028      C1029   1.405       .  A
C1028      H1033   1.082       .  S
C1029      C1030   1.402       .  A
C1030      N1031   1.427       .  S
N1031      O1035   1.261       .  A
N1031      O1036   1.262       .  A
N1034      O1038   1.262       .  A
N1034      O1037   1.262       .  A
C1039      C1040   1.409       .  A
C1039      C1044   1.401       .  A
C1039      H1046   1.081       .  S
C1040      C1041   1.417       .  A
C1041      C1042   1.399   1_655  A
C1041      N1048   1.428       .  S
C1042      C1043   1.402       .  A
C1042      H1047   1.082       .  S
C1043      C1044   1.411   1_455  A
C1044      N1045   1.429   1_655  S
N1045      O1049   1.262       .  A
N1045      O1050   1.262   1_455  A
N1048      O1052   1.262       .  A
N1048      O1051   1.262   1_655  A
C1053      C1054   1.404       .  A
C1053      C1058   1.397       .  A
C1053      H1060   1.082       .  S
C1054      C1055   1.414       .  A
C1055      C1056   1.410       .  A
C1055      N1062   1.428       .  S
C1056      C1057   1.409       .  A
C1056      H1061   1.081       .  S
C1057      C1058   1.419       .  A
C1058      N1059   1.430       .  S
N1059      O1063   1.262       .  A
N1059      O1064   1.262       .  A
N1062      O1066   1.262       .  A
N1062      O1065   1.262       .  A
C1067      C1068   1.403       .  A
C1067      C1072   1.395       .  A
C1067      H1074   1.082       .  S
C1068      C1069   1.415       .  A
C1069      N1076   1.427       .  S
C1070      C1071   1.403       .  A
C1070      H1075   1.082       .  S
C1072      N1073   1.430       .  S
N1073      O1077   1.262       .  A
N1073      O1078   1.262       .  A
N1076      O1079   1.262       .  A
C1081      C1082   1.403       .  A
C1081      C1086   1.405       .  A
C1081      H1088   1.082       .  S
C1082      C1083   1.411       .  A
C1083      C1084   1.400       .  A
C1083      N1090   1.429       .  S
C1084      C1085   1.405       .  A
C1084      H1089   1.082       .  S
C1085      C1086   1.417       .  A
C1086      N1087   1.429       .  S
N1087      O1091   1.262       .  A
N1087      O1092   1.262       .  A
N1090      O1094   1.262       .  A
N1090      O1093   1.262       .  A
C1095      C1096   1.405       .  A
C1095      H1102   1.081       .  S
C1096      C1097   1.413       .  A
C1097      C1098   1.400       .  A
C1097      N1104   1.428       .  S
C1098      H1103   1.082       .  S
C1099      C1100   1.412       .  A
C1100      N1101   1.429       .  S
N1101      O1105   1.262       .  A
N1101      O1106   1.262       .  A
N1104      O1108   1.262       .  A
N1104      O1107   1.261       .  A
C1109      C1110   1.405       .  A
C1109      C1114   1.400       .  A
C1109      H1116   1.081       .  S
C1110      C1111   1.415       .  A
C1111      C1112   1.402       .  A
C1111      N1118   1.427       .  S
C1112      C1113   1.402       .  A
C1112      H1117   1.082       .  S
C1113      C1114   1.412       .  A
C1114      N1115   1.427       .  S
N1115      O1119   1.262       .  A
N1115      O1120   1.262       .  A
N1118      O1122   1.261       .  A
N1118      O1121   1.262       .  A
C1123      C1124   1.403       .  A
C1123      C1128   1.394       .  A
C1123      H1130   1.083       .  S
C1124      C1125   1.414       .  A
C1125      C1126   1.400       .  A
C1125      N1132   1.430       .  S
C1126      C1127   1.403       .  A
C1126      H1131   1.083       .  S
C1127      C1128   1.410       .  A
C1128      N1129   1.428       .  S
N1129      O1133   1.262       .  A
N1129      O1134   1.262       .  A
N1132      O1136   1.262       .  A
N1132      O1135   1.262       .  A
C1137      C1138   1.403       .  A
C1137      C1142   1.402       .  A
C1137      H1144   1.082       .  S
C1138      C1139   1.414       .  A
C1139      C1140   1.397       .  A
C1139      N1146   1.428   1_655  S
C1140      C1141   1.401       .  A
C1140      H1145   1.082       .  S
C1141      C1142   1.415       .  A
C1142      N1143   1.429       .  S
N1143      O1147   1.262       .  A
N1143      O1148   1.262       .  A
N1146      O1150   1.262       .  A
N1146      O1149   1.261       .  A
C1151      C1152   1.398       .  A
C1151      H1158   1.084       .  S
C1152      C1153   1.407       .  A
C1153      C1154   1.404       .  A
C1153      N1160   1.430   1_655  S
C1154      H1159   1.084   1_655  S
C1155      C1156   1.413   1_556  A
C1156      N1157   1.428   1_554  S
N1157      O1161   1.262       .  A
N1157      O1162   1.262   1_556  A
N1160      O1164   1.262       .  A
N1160      O1163   1.262   1_455  A
C1165      C1166   1.404       .  A
C1165      C1170   1.399       .  A
C1165      H1172   1.082       .  S
C1166      C1167   1.415       .  A
C1167      C1168   1.399       .  A
C1167      N1174   1.426   1_565  S
C1168      C1169   1.399       .  A
C1168      H1173   1.082       .  S
C1169      C1170   1.411       .  A
C1170      N1171   1.429       .  S
N1171      O1175   1.262       .  A
N1171      O1176   1.262       .  A
N1174      O1178   1.261       .  A
N1174      O1177   1.262       .  A
C1179      C1180   1.403       .  A
C1179      C1184   1.395   1_556  A
C1179      H1186   1.082       .  S
C1180      C1181   1.415       .  A
C1181      N1188   1.427       .  S
C1182      C1183   1.403       .  A
C1182      H1187   1.082       .  S
C1184      N1185   1.424       .  S
N1185      O1189   1.260       .  A
N1188      O1192   1.261       .  A
N1188      O1191   1.262       .  A
C1193      C1194   1.401       .  A
C1193      C1198   1.398       .  A
C1193      H1200   1.082       .  S
C1194      C1195   1.412       .  A
C1195      C1196   1.398       .  A
C1195      N1202   1.429       .  S
C1196      C1197   1.404       .  A
C1196      H1201   1.082       .  S
C1197      C1198   1.412       .  A
C1198      N1199   1.428       .  S
N1199      O1203   1.262       .  A
N1199      O1204   1.261       .  A
N1202      O1206   1.262       .  A
N1202      O1205   1.262       .  A
C1207      C1208   1.402       .  A
C1207      C1212   1.400       .  A
C1207      H1214   1.081       .  S
C1208      C1209   1.409       .  A
C1209      C1210   1.396       .  A
C1209      N1216   1.428       .  S
C1210      C1211   1.403       .  A
C1210      H1215   1.081       .  S
C1211      C1212   1.414       .  A
C1212      N1213   1.428       .  S
N1213      O1217   1.261       .  A
N1213      O1218   1.262       .  A
N1216      O1220   1.262       .  A
N1216      O1219   1.262       .  A
C1221      C1222   1.409       .  A
C1221      C1226   1.392       .  A
C1221      H1228   1.085       .  S
C1222      C1223   1.416       .  A
C1223      C1224   1.407       .  A
C1223      N1230   1.427       .  S
C1224      C1225   1.404       .  A
C1224      H1229   1.086       .  S
C1225      C1226   1.407       .  A
C1226      N1227   1.430       .  S
N1227      O1231   1.262       .  A
N1227      O1232   1.262       .  A
N1230      O1234   1.262       .  A
N1230      O1233   1.262       .  A
C1235      C1236   1.398       .  A
C1235      H1242   1.090       .  S
C1236      C1237   1.406       .  A
C1237      C1238   1.396       .  A
C1237      N1244   1.429       .  S
C1238      H1243   1.091       .  S
C1239      C1240   1.414       .  A
C1240      N1241   1.425       .  S
N1241      O1245   1.261       .  A
N1241      O1246   1.262       .  A
N1244      O1248   1.262       .  A
N1244      O1247   1.261       .  A
