geometry optimzed in LAMMPS
_audit_creation_date              2020-11-30 
_audit_creation_method            'lammps2cif' 
_symmetry_space_group_name_H-M    'P1' 
_symmetry_Int_Tables_number       1 
_symmetry_cell_setting            triclinic 
loop_ 
_symmetry_equiv_pos_as_xyz 
  x,y,z 
_cell_length_a                    28.186907 
_cell_length_b                    40.5388697516804 
_cell_length_c                    29.0985214026907 
_cell_angle_alpha                 87.34520476851336 
_cell_angle_beta                  89.72614966988426 
_cell_angle_gamma                 92.24989063863649 
loop_ 
_atom_site_label 
_atom_site_type_symbol 
_atom_site_fract_x 
_atom_site_fract_y 
_atom_site_fract_z 
_atom_site_charge 
C1          C  0.09264257  0.21404755  0.98557694    -0.02400
C2          C  0.04328371  0.23857962  0.98343256    -0.02400
Zn3        Zn  0.36848681  0.25081131  0.23772998     1.49700
Zn4        Zn  0.25535944  0.24301409  0.23267818     1.49400
Zn5        Zn  0.31472609  0.19056861  0.18304422     1.49100
Zn6        Zn  0.31192898  0.19003971  0.29177575     1.49500
O7          O  0.31373649  0.21870574  0.23598741    -1.84100
O8          O  0.34470536  0.29940742  0.23938860    -0.74700
O9          O  0.21063154  0.22809307  0.18410346    -0.74500
O10         O  0.37453577  0.20349154  0.14661597    -0.74000
O11         O  0.26829303  0.29176661  0.22465405    -0.74700
O12         O  0.41228390  0.24451359  0.18119353    -0.74300
O13         O  0.25560614  0.19627334  0.14331545    -0.76900
O14         O  0.30652240  0.14208406  0.27716610    -0.74300
O15         O  0.21917191  0.23860639  0.29088183    -0.75000
O16         O  0.31474092  0.14133352  0.20150495    -0.74400
O17         O  0.25783752  0.20092577  0.33200262    -0.74900
O18         O  0.36913222  0.19664778  0.33130723    -0.74800
O19         O  0.40634914  0.24054177  0.29712331    -0.74600
C20         C  0.30342090  0.31109722  0.23296413     0.77200
C21         C  0.21674477  0.21061652  0.14969056     0.77700
C22         C  0.40973776  0.22416124  0.14870421     0.76600
C23         C  0.30944223  0.12612581  0.24060521     0.77000
C24         C  0.22471881  0.22117400  0.32749104     0.78200
C25         C  0.40256204  0.21858192  0.33025093     0.77200
C26         C  0.32008575  0.97951533  0.26153141    -0.02400
C27         C  0.27051291  0.45293305  0.26565379    -0.02400
Zn28       Zn  0.05188159  0.50806081  0.45416037     1.49700
Zn29       Zn  0.05344851  0.50332263  0.06241056     1.49400
Zn30       Zn  0.99036585  0.44910404  0.00904577     1.49100
Zn31       Zn  0.10411005  0.44590676  0.01298100     1.49500
O32         O  0.05065640  0.47554633  0.00904403    -1.84100
O33         O  0.05652224  0.05727491  0.46457521    -0.74700
O34         O  0.99431616  0.49508808  0.10117419    -0.74500
O35         O  0.44829666  0.45723679  0.45655676    -0.74000
O36         O  0.05738492  0.05215253  0.03954653    -0.74700
O37         O  0.99518837  0.49959901  0.41246530    -0.74300
O38         O  0.44963183  0.45917125  0.07095371    -0.74900
O39         O  0.08009512  0.39915580  0.00924485    -0.74300
O40         O  0.10884483  0.49181938  0.10425445    -0.75000
O41         O  0.00175380  0.40014328  0.00534759    -0.74400
O42         O  0.14202109  0.45005595  0.07146441    -0.74900
O43         O  0.14370340  0.45712919  0.46498898    -0.74800
O44         O  0.11092201  0.49518942  0.41953842    -0.74600
C45         C  0.05709814  0.06728241  0.00014141     0.77200
C46         C  0.45640858  0.47779278  0.10460580     0.77700
C47         C  0.45587503  0.47509186  0.41993267     0.76600
C48         C  0.03986028  0.38431824  0.00475754     0.77000
C49         C  0.13962113  0.46955742  0.10440023     0.78200
C50         C  0.14330713  0.47450052  0.42757702     0.77200
C51         C  0.22677153  0.43524380  0.34405601    -0.20200
C52         C  0.23790855  0.46104188  0.31002056    -0.06800
C53         C  0.21356637  0.49155790  0.31796569     0.14100
C54         C  0.18968595  0.49571625  0.35971415    -0.20300
C55         C  0.17979004  0.46974828  0.39144143    -0.06800
C56         C  0.19900484  0.43895896  0.38363176     0.14000
C57         C  0.18901016  0.40909778  0.41577203    -0.23600
H58         H  0.23823152  0.41075816  0.34020967     0.15300
H59         H  0.17379787  0.51919120  0.36538365     0.15400
C60         C  0.20190917  0.51926308  0.28369745    -0.23600
H61         H  0.20573059  0.38662290  0.40384989     0.05600
H62         H  0.15016670  0.40360465  0.41814801     0.08800
H63         H  0.20342978  0.41379092  0.45039494     0.08800
H64         H  0.16276446  0.52179384  0.28263125     0.08800
H65         H  0.21103208  0.51535998  0.24833767     0.08800
H66         H  0.21756643  0.54323471  0.29430015     0.05600
C67         C  0.18735494  0.46075767  0.22618581    -0.20200
C68         C  0.23712621  0.45622295  0.22057733    -0.06800
C69         C  0.24852526  0.44634372  0.17472432     0.14100
C70         C  0.21742644  0.45309787  0.13770710    -0.20300
C71         C  0.17220738  0.46526396  0.14435178    -0.06800
C72         C  0.15639356  0.46785168  0.18982291     0.14000
C73         C  0.10589789  0.47613810  0.20093899    -0.23600
H74         H  0.17067578  0.45835560  0.25951174     0.15300
H75         H  0.22784022  0.44711603  0.10323028     0.15400
C76         C  0.28803971  0.42402153  0.16244912    -0.23600
H77         H  0.09881091  0.47524214  0.23857071     0.05600
H78         H  0.08063255  0.45825354  0.18529766     0.08800
H79         H  0.09897630  0.50160382  0.18773929     0.08800
H80         H  0.31475077  0.42035113  0.18918311     0.08800
H81         H  0.30701359  0.43395847  0.13095252     0.08800
H82         H  0.27237007  0.39936598  0.15465272     0.05600
C83         C  0.42939730  0.49702976  0.34340250    -0.20200
C84         C  0.41961114  0.47624718  0.38232621    -0.06800
C85         C  0.37612637  0.45753424  0.38366681     0.14100
C86         C  0.34551137  0.45914584  0.34556780    -0.20300
C87         C  0.35534886  0.47855383  0.30502897    -0.06800
C88         C  0.39858784  0.49918980  0.30570683     0.14000
C89         C  0.41508840  0.52449869  0.26828424    -0.23600
H90         H  0.46186933  0.51231185  0.34212315     0.15300
H91         H  0.31150040  0.94979500  0.35014157     0.15400
C92         C  0.36087739  0.93942523  0.42543836    -0.23600
H93         H  0.45015423  0.51776255  0.25477288     0.05600
H94         H  0.39132720  0.52749169  0.23863246     0.08800
H95         H  0.41928392  0.54916747  0.28321016     0.08800
H96         H  0.36103001  0.95538065  0.45542773     0.08800
H97         H  0.38659263  0.41564744  0.43050925     0.08800
H98         H  0.32418199  0.92882022  0.42228150     0.05600
C99         C  0.34414706  0.98646544  0.17333578    -0.20200
C100        C  0.35459482  0.47239561  0.21912146    -0.06800
C101        C  0.40089024  0.45712668  0.22112695     0.14100
C102        C  0.43309819  0.46101061  0.18392337    -0.20300
C103        C  0.42132705  0.47642257  0.14238694    -0.06800
C104        C  0.37586203  0.98833839  0.13597059     0.14000
C105        C  0.36131543  0.00438676  0.09059038    -0.23600
H106        H  0.31012125  0.99386981  0.16405701     0.15300
H107        H  0.46806394  0.45074519  0.18684156     0.15400
C108        C  0.42117267  0.43568773  0.25934473    -0.23600
H109        H  0.32507677  0.01411932  0.09209354     0.05600
H110        H  0.36163110  0.98604735  0.06341877     0.08800
H111        H  0.38644986  0.02536038  0.08090030     0.08800
H112        H  0.42946608  0.41126251  0.24615962     0.08800
H113        H  0.39816811  0.43065997  0.28848239     0.08800
H114        H  0.45457124  0.44743681  0.27209313     0.05600
C115        C  0.33219182  0.36900453  0.25082025    -0.20200
C116        C  0.29432539  0.34719395  0.23951909    -0.06800
C117        C  0.24756499  0.35916333  0.24344563     0.14100
C118        C  0.24146246  0.39170862  0.25684827    -0.20300
C119        C  0.28008061  0.41355338  0.26790676    -0.06800
C120        C  0.32303476  0.39655511  0.27731686     0.14000
C121        C  0.33463262  0.38654365  0.32736218    -0.23600
H122        H  0.36751298  0.35936278  0.25249329     0.15300
H123        H  0.20581535  0.40056417  0.25726231     0.15400
C124        C  0.20330088  0.33871842  0.23296914    -0.23600
H125        H  0.36854488  0.39756849  0.33908164     0.05600
H126        H  0.33861201  0.35941217  0.33302811     0.08800
H127        H  0.30623772  0.39172955  0.35173092     0.08800
H128        H  0.19938983  0.31711155  0.25773897     0.08800
H129        H  0.20494348  0.33051402  0.19713469     0.08800
H130        H  0.17059028  0.35290181  0.23598290     0.05600
C131        C  0.28724151  0.03397083  0.21960904    -0.20200
C132        C  0.30548636  0.01794652  0.25994381    -0.06800
C133        C  0.31368241  0.04039899  0.29692017     0.14100
C134        C  0.31929834  0.07451621  0.28741896    -0.20300
C135        C  0.30743962  0.08922682  0.24500540    -0.06800
C136        C  0.28845437  0.06860375  0.21138151     0.14000
C137        C  0.26666088  0.08271785  0.16787925    -0.23600
H138        H  0.26542597  0.02009020  0.19674818     0.15300
H139        H  0.32978952  0.09014610  0.31520273     0.15400
C140        C  0.31017549  0.03152443  0.34797706    -0.23600
H141        H  0.25095758  0.06308521  0.14657328     0.05600
H142        H  0.29418398  0.09659332  0.14660485     0.08800
H143        H  0.23795764  0.09940521  0.17661213     0.08800
H144        H  0.34558541  0.03397706  0.36426223     0.08800
H145        H  0.29362058  0.00706189  0.35607318     0.08800
H146        H  0.28632379  0.04867186  0.36467828     0.05600
C147        C  0.48376685  0.22920221  0.35837265    -0.20200
C148        C  0.43752182  0.21898870  0.36866019    -0.06800
C149        C  0.42452013  0.21470134  0.41533279     0.14100
C150        C  0.45851342  0.21989694  0.44983972    -0.20300
C151        C  0.50733026  0.22902957  0.44121191    -0.06800
C152        C  0.51609525  0.23834779  0.39272093     0.14000
C153        C  0.05151497  0.27153426  0.37041430    -0.23600
H154        H  0.49282266  0.23384629  0.32229528     0.15300
H155        H  0.44347407  0.22093113  0.48339451     0.15400
C156        C  0.37350858  0.20856745  0.42937534    -0.23600
H157        H  0.05029508  0.27580722  0.33242794     0.05600
H158        H  0.08746302  0.26390686  0.37612980     0.08800
H159        H  0.04249010  0.29558521  0.38368172     0.08800
H160        H  0.35935690  0.18494379  0.41613563     0.08800
H161        H  0.35360007  0.22965054  0.41519792     0.08800
H162        H  0.36842606  0.20715016  0.46730733     0.05600
C163        C  0.48387940  0.24948802  0.11023403    -0.20200
C164        C  0.44781113  0.22473677  0.11186689    -0.06800
C165        C  0.44911618  0.20108688  0.07785362     0.14100
C166        C  0.48123966  0.20570980  0.04082578    -0.20300
C167        C  0.51371756  0.23335897  0.03341846    -0.06800
C168        C  0.51755426  0.25330842  0.07378857     0.14000
C169        C  0.55587756  0.27919344  0.08222214    -0.23600
H170        H  0.48598304  0.26645472  0.13796729     0.15300
H171        H  0.47327127  0.18932956  0.01479422     0.15400
C172        C  0.41553041  0.17094795  0.07834275    -0.23600
H173        H  0.57498682  0.27237893  0.11437697     0.05600
H174        H  0.54010301  0.30359120  0.08607883     0.08800
H175        H  0.08578880  0.27812541  0.05560196     0.08800
H176        H  0.37854361  0.17853229  0.07255784     0.08800
H177        H  0.41829254  0.15659429  0.11158838     0.08800
H178        H  0.42378492  0.15389617  0.05084713     0.05600
C179        C  0.08042911  0.33602696  0.97772134    -0.20200
C180        C  0.03909765  0.34838407  0.99556681    -0.06800
C181        C  0.49788442  0.32391817  0.49805729     0.14100
C182        C  0.50210022  0.29048736  0.48865736    -0.20300
C183        C  0.04679562  0.27862315  0.97955623    -0.06800
C184        C  0.08452510  0.30283602  0.96667553     0.14000
C185        C  0.12570975  0.29977029  0.93398153    -0.23600
H186        H  0.10988593  0.35339355  0.96948320     0.15300
H187        H  0.47038189  0.27499554  0.49405097     0.15400
C188        C  0.45088487  0.33516366  0.51532019    -0.23600
H189        H  0.15788849  0.31387002  0.94502511     0.05600
H190        H  0.11281569  0.31777587  0.39636850     0.08800
H191        H  0.13493659  0.27466559  0.92953805     0.08800
H192        H  0.43654681  0.35388049  0.49063254     0.08800
H193        H  0.45857084  0.35198387  0.05688219     0.08800
H194        H  0.42393817  0.31447014  0.51923089     0.05600
C195        C  0.17305989  0.22903946  0.44514545    -0.20200
C196        C  0.12398578  0.22108927  0.44015152    -0.06800
C197        C  0.11267001  0.20760518  0.39548636     0.14100
C198        C  0.14448772  0.21331350  0.35834709    -0.20300
C199        C  0.19099236  0.22381131  0.36519846    -0.06800
C200        C  0.20576268  0.23142913  0.40910223     0.14000
C201        C  0.25685058  0.24027943  0.41878556    -0.23600
H202        H  0.18907855  0.22950175  0.47798151     0.15300
H203        H  0.13519332  0.20533726  0.32432640     0.15400
C204        C  0.07494028  0.18135655  0.38512952    -0.23600
H205        H  0.26252246  0.24729975  0.45486601     0.05600
H206        H  0.26957080  0.26135387  0.39560349     0.08800
H207        H  0.27753635  0.21824420  0.41302786     0.08800
H208        H  0.07398768  0.17536274  0.34825767     0.08800
H209        H  0.03876026  0.18827820  0.39179946     0.08800
H210        H  0.08354528  0.15773078  0.40322070     0.05600
C211        C  0.10736854  0.20093755  0.07350507    -0.20200
C212        C  0.12046244  0.22179852  0.03371008    -0.06800
C213        C  0.16125501  0.24425604  0.04245653     0.14100
C214        C  0.19208585  0.23697269  0.07880720    -0.20300
C215        C  0.18180758  0.21275361  0.11230997    -0.06800
C216        C  0.13752452  0.19585268  0.11174966     0.14000
C217        C  0.12326838  0.17128005  0.15011920    -0.23600
H218        H  0.07486668  0.18591317  0.07337770     0.15300
H219        H  0.22507494  0.25138315  0.08248627     0.15400
C220        C  0.17652092  0.27654137  0.01771902    -0.23600
H221        H  0.08769204  0.15952054  0.14424814     0.05600
H222        H  0.12216281  0.18389462  0.18314328     0.08800
H223        H  0.14948510  0.15153897  0.15275078     0.08800
H224        H  0.18446452  0.28235964  0.48176892     0.08800
H225        H  0.19996108  0.29962232  0.53193188     0.08800
H226        H  0.14953161  0.29491547  0.02096122     0.05600
C227        C  0.03769120  0.16524792  0.47674700    -0.20200
C228        C  0.08293679  0.17434866  0.98939081    -0.06800
C229        C  0.11893032  0.15089490  0.00311414     0.14100
C230        C  0.10665561  0.11710488  0.01044656    -0.20300
C231        C  0.06309553  0.10370438  0.99757170    -0.06800
C232        C  0.02763666  0.13090204  0.48040524     0.14000
C233        C  0.98053914  0.11709619  0.46419068    -0.23600
H234        H  0.01240392  0.17926026  0.45837239     0.15300
H235        H  0.13302578  0.10005562  0.02273708     0.15400
C236        C  0.17191119  0.15835078  0.00643778    -0.23600
H237        H  0.45860155  0.12760382  0.45669562     0.05600
H238        H  0.45843554  0.10182546  0.99971745     0.08800
H239        H  0.48703811  0.09098761  0.44024708     0.08800
H240        H  0.19138344  0.13693992  0.02075269     0.08800
H241        H  0.17908488  0.18613872  0.52923256     0.08800
H242        H  0.18703759  0.16298144  0.97151845     0.05600
C243        C  0.09032056  0.22051515  0.48469891    -0.02400
C244        C  0.04008585  0.24425032  0.48145541    -0.02400
Zn245      Zn  0.37003802  0.25311758  0.73396726     1.49700
Zn246      Zn  0.25536422  0.24946249  0.73318230     1.49400
Zn247      Zn  0.31101489  0.19626401  0.67877569     1.49100
Zn248      Zn  0.31211834  0.19476478  0.78810420     1.49500
O249        O  0.31269139  0.22362070  0.73300409    -1.84100
O250        O  0.35150520  0.30195053  0.73311354    -0.74700
O251        O  0.21072533  0.23833154  0.68246730    -0.74500
O252        O  0.37172401  0.20636397  0.64154943    -0.74000
O253        O  0.27268696  0.29780552  0.72902399    -0.74700
O254        O  0.41330075  0.24416101  0.67915474    -0.74300
O255        O  0.25149465  0.20432956  0.64089452    -0.76900
O256        O  0.30747903  0.14784218  0.77177783    -0.74300
O257        O  0.21759821  0.24231654  0.79091761    -0.75000
O258        O  0.30798596  0.14697132  0.69585154    -0.74400
O259        O  0.25676933  0.20271057  0.82743113    -0.74900
O260        O  0.36851579  0.20181097  0.82921268    -0.74800
O261        O  0.40721803  0.24423053  0.79333641    -0.74600
C262        C  0.31109773  0.31522390  0.73097612     0.77200
C263        C  0.21441723  0.22049805  0.64800105     0.77700
C264        C  0.40924685  0.22467732  0.64587516     0.76600
C265        C  0.30632450  0.13186357  0.73516053     0.77000
C266        C  0.22311413  0.22256813  0.82530198     0.78200
C267        C  0.40247952  0.22337536  0.82753383     0.77200
C268        C  0.32500235  0.98660326  0.75708839    -0.02400
C269        C  0.27509528  0.45921536  0.75924434    -0.02400
Zn270      Zn  0.05518497  0.50313385  0.95186840     1.49700
Zn271      Zn  0.04700113  0.50969484  0.56428918     1.49400
Zn272      Zn  0.98599159  0.45441837  0.51044475     1.49100
Zn273      Zn  0.09834619  0.45101344  0.51798158     1.49500
O274        O  0.04579351  0.48108474  0.51164124    -1.84100
O275        O  0.05562464  0.05177590  0.96298350    -0.74700
O276        O  0.98830017  0.50012318  0.60301911    -0.74500
O277        O  0.44748976  0.46256910  0.95813343    -0.74000
O278        O  0.05070865  0.05876789  0.54088974    -0.74700
O279        O  0.99781696  0.49527969  0.91092000    -0.74300
O280        O  0.45067407  0.45201417  0.56961881    -0.74900
O281        O  0.07499143  0.40369103  0.51406802    -0.74300
O282        O  0.10266811  0.50051542  0.60649625    -0.75000
O283        O  0.99723413  0.40573421  0.50464808    -0.74400
O284        O  0.13609192  0.45782232  0.57580927    -0.74900
O285        O  0.14846785  0.45278524  0.95871455    -0.74800
O286        O  0.11420020  0.49175006  0.91578422    -0.74600
C287        C  0.05515422  0.07338056  0.50125092     0.77200
C288        C  0.45710290  0.47279259  0.60076747     0.77700
C289        C  0.45637817  0.48012208  0.92154975     0.76600
C290        C  0.03492175  0.38948016  0.50617656     0.77000
C291        C  0.13417171  0.47882046  0.60694274     0.78200
C292        C  0.14699406  0.47112902  0.92216354     0.77200
C293        C  0.22292917  0.43539366  0.82925596    -0.20200
C294        C  0.24164789  0.46386167  0.80361282    -0.06800
C295        C  0.21986188  0.49418995  0.81616026     0.14100
C296        C  0.19705138  0.49594450  0.85896727    -0.20300
C297        C  0.18282489  0.46774399  0.88510429    -0.06800
C298        C  0.19543070  0.43682889  0.86965091     0.14000
C299        C  0.17802760  0.40495592  0.89415149    -0.23600
H300        H  0.22757586  0.41104465  0.81713907     0.15300
H301        H  0.18402673  0.51947147  0.86891998     0.15400
C302        C  0.20682491  0.52305187  0.78444787    -0.23600
H303        H  0.18976803  0.38290452  0.87658786     0.05600
H304        H  0.13861488  0.40369081  0.89547851     0.08800
H305        H  0.19229580  0.40351791  0.92963887     0.08800
H306        H  0.16781442  0.52608715  0.78622392     0.08800
H307        H  0.21295826  0.52005223  0.74800035     0.08800
H308        H  0.22380715  0.54644490  0.79558993     0.05600
C309        C  0.18902242  0.46378798  0.72400645    -0.20200
C310        C  0.23966177  0.46699834  0.71614794    -0.06800
C311        C  0.25153305  0.46897071  0.66734105     0.14100
C312        C  0.21714307  0.47730697  0.63413114    -0.20300
C313        C  0.16898421  0.47725272  0.64484236    -0.06800
C314        C  0.15464298  0.46978797  0.69027645     0.14000
C315        C  0.10259980  0.46625924  0.70308097    -0.23600
H316        H  0.17427747  0.45541767  0.75682140     0.15300
H317        H  0.22741639  0.48007083  0.59809559     0.15400
C318        C  0.29470632  0.45558093  0.64549256    -0.23600
H319        H  0.09702234  0.45947176  0.74018871     0.05600
H320        H  0.08494086  0.44668268  0.68300989     0.08800
H321        H  0.08528430  0.49002250  0.69565327     0.08800
H322        H  0.31642336  0.44148334  0.66948498     0.08800
H323        H  0.31508883  0.47558514  0.62614684     0.08800
H324        H  0.28350195  0.43715966  0.62013101     0.05600
C325        C  0.43766658  0.49569852  0.84072843    -0.20200
C326        C  0.42212151  0.48059905  0.88239344    -0.06800
C327        C  0.37454197  0.46851096  0.88544066     0.14100
C328        C  0.34538349  0.47063279  0.84620085    -0.20300
C329        C  0.36051023  0.48406733  0.80279859    -0.06800
C330        C  0.40789143  0.49967478  0.80254958     0.14000
C331        C  0.42868392  0.52320744  0.76512994    -0.23600
H332        H  0.47378905  0.50584904  0.83824275     0.15300
H333        H  0.30848970  0.96633359  0.84935389     0.15400
C334        C  0.35204247  0.95611687  0.92764297    -0.23600
H335        H  0.44301112  0.50940527  0.73658791     0.05600
H336        H  0.40297765  0.54168721  0.75379194     0.08800
H337        H  0.45949542  0.53825445  0.77738879     0.08800
H338        H  0.35586363  0.97504030  0.95391466     0.08800
H339        H  0.37076247  0.43204064  0.94185228     0.08800
H340        H  0.31352755  0.94986776  0.92429843     0.05600
C341        C  0.37017846  0.00745830  0.67963778    -0.20200
C342        C  0.36046348  0.48113525  0.71701537    -0.06800
C343        C  0.39040131  0.45308143  0.71194820     0.14100
C344        C  0.41651390  0.44958990  0.67102499    -0.20300
C345        C  0.42156133  0.47505015  0.63754976    -0.06800
C346        C  0.39893983  0.00465844  0.64076223     0.14000
C347        C  0.40547893  0.03377071  0.60656286    -0.23600
H348        H  0.36228756  0.03246361  0.68453788     0.15300
H349        H  0.43738693  0.42790255  0.66732610     0.15400
C350        C  0.40374354  0.42824713  0.74900110    -0.23600
H351        H  0.38327487  0.05468666  0.61523243     0.05600
H352        H  0.39512230  0.02613951  0.57173090     0.08800
H353        H  0.44307046  0.04299062  0.60584589     0.08800
H354        H  0.39548017  0.40294584  0.73771343     0.08800
H355        H  0.38767830  0.43148809  0.78226527     0.08800
H356        H  0.44267127  0.43048434  0.75472637     0.05600
C357        C  0.32500648  0.36572942  0.77402648    -0.20200
C358        C  0.30718538  0.35144315  0.73491760    -0.06800
C359        C  0.27660567  0.36969198  0.70712377     0.14100
C360        C  0.26526066  0.40159887  0.71901807    -0.20300
C361        C  0.28669524  0.41961666  0.75568288    -0.06800
C362        C  0.31202360  0.39738708  0.78753966     0.14000
C363        C  0.32104011  0.40027228  0.83858717    -0.23600
H364        H  0.34567012  0.35024589  0.79718926     0.15300
H365        H  0.23704242  0.41109307  0.69851068     0.15400
C366        C  0.25566946  0.35568039  0.66404732    -0.23600
H367        H  0.35896395  0.40603944  0.84564495     0.05600
H368        H  0.31275675  0.37607190  0.85708042     0.08800
H369        H  0.29745871  0.41560667  0.85686404     0.08800
H370        H  0.23103781  0.33431219  0.67286561     0.08800
H371        H  0.28466137  0.34772431  0.64160317     0.08800
H372        H  0.23533594  0.37417172  0.64378675     0.05600
C373        C  0.28894939  0.03912016  0.71567701    -0.20200
C374        C  0.30875714  0.02437151  0.75633721    -0.06800
C375        C  0.31698704  0.04733363  0.79264818     0.14100
C376        C  0.31864018  0.08132920  0.78239524    -0.20300
C377        C  0.30466695  0.09508850  0.74017830    -0.06800
C378        C  0.28740315  0.07360509  0.70685419     0.14000
C379        C  0.26826751  0.08648462  0.66148484    -0.23600
H380        H  0.27942156  0.02401134  0.68777203     0.15300
H381        H  0.32965304  0.09762468  0.80924458     0.15400
C382        C  0.31730976  0.03927287  0.84396814    -0.23600
H383        H  0.25466252  0.06615488  0.64020549     0.05600
H384        H  0.29683019  0.10032005  0.64147409     0.08800
H385        H  0.23848277  0.10291301  0.66754963     0.08800
H386        H  0.35386451  0.03562575  0.85639637     0.08800
H387        H  0.29210248  0.01888054  0.85402580     0.08800
H388        H  0.30405181  0.05996783  0.86360953     0.05600
C389        C  0.48323779  0.23511624  0.85657334    -0.20200
C390        C  0.43676160  0.22499246  0.86642604    -0.06800
C391        C  0.42266072  0.22272929  0.91285946     0.14100
C392        C  0.45579235  0.22924919  0.94755813    -0.20300
C393        C  0.50521848  0.23632814  0.93968865    -0.06800
C394        C  0.51511919  0.24468758  0.89118910     0.14000
C395        C  0.05163885  0.26904011  0.87430240    -0.23600
H396        H  0.49307980  0.23898966  0.82056807     0.15300
H397        H  0.44004611  0.23243237  0.98046963     0.15400
C398        C  0.37150108  0.21702270  0.92615648    -0.23600
H399        H  0.04973773  0.27454328  0.83659317     0.05600
H400        H  0.08743659  0.26089748  0.87889661     0.08800
H401        H  0.04380908  0.29278141  0.88924456     0.08800
H402        H  0.35822906  0.19258401  0.91491027     0.08800
H403        H  0.35158450  0.23724731  0.90947715     0.08800
H404        H  0.36549306  0.21739000  0.96388811     0.05600
C405        C  0.48316918  0.24933514  0.60728691    -0.20200
C406        C  0.44875030  0.22360390  0.61107121    -0.06800
C407        C  0.45407940  0.19701284  0.58226365     0.14100
C408        C  0.48711828  0.19999713  0.54570570    -0.20300
C409        C  0.51676050  0.22870554  0.53481397    -0.06800
C410        C  0.51858463  0.25107510  0.57257435     0.14000
C411        C  0.55696497  0.27700918  0.58024273    -0.23600
H412        H  0.48296174  0.26843735  0.63218124     0.15300
H413        H  0.48231315  0.18095991  0.52279842     0.15400
C414        C  0.42466777  0.16509444  0.58883672    -0.23600
H415        H  0.57406888  0.27174628  0.61397037     0.05600
H416        H  0.54181515  0.30186009  0.58053233     0.08800
H417        H  0.07908536  0.28491490  0.55375389     0.08800
H418        H  0.38701667  0.16920294  0.58018383     0.08800
H419        H  0.42751441  0.15527742  0.62495017     0.08800
H420        H  0.43692766  0.14567567  0.56633695     0.05600
C421        C  0.07404028  0.34237098  0.47403196    -0.20200
C422        C  0.03390683  0.35391255  0.49507991    -0.06800
C423        C  0.49713317  0.33013324  0.00263495     0.14100
C424        C  0.50070801  0.29678155  0.99251217    -0.20300
C425        C  0.04222624  0.28438467  0.47790845    -0.06800
C426        C  0.07848365  0.30918682  0.46286463     0.14000
C427        C  0.12010397  0.30612382  0.43070275    -0.23600
H428        H  0.10247511  0.36025292  0.46453753     0.15300
H429        H  0.46912020  0.28147676  0.99911908     0.15400
C430        C  0.45142837  0.34120926  0.02308070    -0.23600
H431        H  0.15168711  0.32096564  0.44151187     0.05600
H432        H  0.11814777  0.31211799  0.90014220     0.08800
H433        H  0.13031220  0.28100625  0.42785336     0.08800
H434        H  0.43517897  0.35976486  0.99943259     0.08800
H435        H  0.45555459  0.34577602  0.54958952     0.08800
H436        H  0.42494837  0.32040069  0.02892347     0.05600
C437        C  0.17463662  0.22166975  0.94519691    -0.20200
C438        C  0.12533506  0.21523864  0.94053353    -0.06800
C439        C  0.11255271  0.20418847  0.89497099     0.14100
C440        C  0.14324658  0.21202430  0.85733468    -0.20300
C441        C  0.18995491  0.22239099  0.86399994    -0.06800
C442        C  0.20620760  0.22629264  0.90857499     0.14000
C443        C  0.25759267  0.23393124  0.91820735    -0.23600
H444        H  0.19136925  0.22017896  0.97768952     0.15300
H445        H  0.13284717  0.20602814  0.82274667     0.15400
C446        C  0.07456804  0.17839772  0.88373122    -0.23600
H447        H  0.26429093  0.23824010  0.95509031     0.05600
H448        H  0.27005096  0.25644159  0.89774003     0.08800
H449        H  0.27787154  0.21238051  0.90893740     0.08800
H450        H  0.07286931  0.17380521  0.84641149     0.08800
H451        H  0.03856507  0.18499644  0.89198531     0.08800
H452        H  0.08351822  0.15426305  0.90015783     0.05600
C453        C  0.10517659  0.20845931  0.57269452    -0.20200
C454        C  0.11733459  0.22940442  0.53277326    -0.06800
C455        C  0.15616840  0.25351571  0.54170895     0.14100
C456        C  0.18656955  0.24801658  0.57897628    -0.20300
C457        C  0.17826700  0.22311008  0.61187446    -0.06800
C458        C  0.13556583  0.20435836  0.61088202     0.14000
C459        C  0.12319041  0.17908859  0.64893446    -0.23600
H460        H  0.07334263  0.19268942  0.57274261     0.15300
H461        H  0.21816914  0.26379086  0.58324205     0.15400
C462        C  0.17002890  0.28569047  0.51604561    -0.23600
H463        H  0.08866191  0.16592656  0.64280614     0.05600
H464        H  0.12079179  0.19143362  0.68209054     0.08800
H465        H  0.15111704  0.16052095  0.65145034     0.08800
H466        H  0.19014765  0.27361039  0.98303641     0.08800
H467        H  0.20741474  0.28929521  0.03378200     0.08800
H468        H  0.14196969  0.30334836  0.51839699     0.05600
C469        C  0.03949636  0.15912673  0.97570398    -0.20200
C470        C  0.08113523  0.18074754  0.48962852    -0.06800
C471        C  0.11754264  0.15756019  0.50313249     0.14100
C472        C  0.10593768  0.12349416  0.50983048    -0.20300
C473        C  0.06195605  0.10988035  0.49813662    -0.06800
C474        C  0.02934449  0.12477247  0.97875062     0.14000
C475        C  0.98254279  0.11111962  0.96157077    -0.23600
H476        H  0.01343763  0.17351962  0.95898681     0.15300
H477        H  0.13280794  0.10657207  0.52128151     0.15400
C478        C  0.17030440  0.16581717  0.50674023    -0.23600
H479        H  0.45341533  0.13490902  0.95690825     0.05600
H480        H  0.46476200  0.09390730  0.49833568     0.08800
H481        H  0.48063485  0.09744552  0.94191920     0.08800
H482        H  0.19010933  0.14480613  0.52178605     0.08800
H483        H  0.18147209  0.17813472  0.02950138     0.08800
H484        H  0.18564216  0.17034117  0.47188317     0.05600
C485        C  0.09463040  0.71418442  0.98689351    -0.02400
C486        C  0.04527417  0.73874624  0.98489009    -0.02400
Zn487      Zn  0.36935636  0.75027718  0.24001355     1.49700
Zn488      Zn  0.25586476  0.74234645  0.23539538     1.49400
Zn489      Zn  0.31569519  0.69010025  0.18561105     1.49100
Zn490      Zn  0.31278099  0.68969862  0.29451673     1.49500
O491        O  0.31446709  0.71823894  0.23854831    -1.84100
O492        O  0.34591741  0.79898171  0.24086819    -0.74700
O493        O  0.21215928  0.72840499  0.18552421    -0.74500
O494        O  0.37574321  0.70259648  0.14914708    -0.74000
O495        O  0.26899840  0.79104151  0.22904180    -0.74700
O496        O  0.41308953  0.74381983  0.18362421    -0.74300
O497        O  0.25699739  0.69608473  0.14537189    -0.76900
O498        O  0.30664585  0.64171236  0.28021745    -0.74300
O499        O  0.21869360  0.73709823  0.29296483    -0.75000
O500        O  0.31506899  0.64098058  0.20457645    -0.74400
O501        O  0.25895739  0.70085513  0.33504542    -0.74900
O502        O  0.37052690  0.69602882  0.33341521    -0.74800
O503        O  0.40750899  0.74000601  0.29922761    -0.74600
C504        C  0.30443103  0.81055298  0.23539317     0.77200
C505        C  0.21840676  0.71087078  0.15119967     0.77700
C506        C  0.41082423  0.72336668  0.15127305     0.76600
C507        C  0.30942860  0.62576563  0.24364120     0.77000
C508        C  0.22495044  0.72034036  0.33002833     0.78200
C509        C  0.40402178  0.71792212  0.33221945     0.77200
C510        C  0.32019745  0.47926399  0.26261067    -0.02400
C511        C  0.27019378  0.95325232  0.26483707    -0.02400
Zn512      Zn  0.05228037  0.00787456  0.45237902     1.49700
Zn513      Zn  0.05331799  0.00374643  0.06048957     1.49400
Zn514      Zn  0.99109308  0.94883359  0.00792132     1.49100
Zn515      Zn  0.10537958  0.94702176  0.01138197     1.49500
O516        O  0.05094839  0.97577890  0.00734898    -1.84100
O517        O  0.05563954  0.55737469  0.46703174    -0.74700
O518        O  0.99423888  0.99559474  0.09947341    -0.74500
O519        O  0.45099570  0.95729796  0.45353387    -0.74000
O520        O  0.05823414  0.55207867  0.04239963    -0.74700
O521        O  0.99608265  0.99918436  0.40996072    -0.74300
O522        O  0.44885167  0.95828927  0.06937605    -0.74900
O523        O  0.08241238  0.89997541  0.00808807    -0.74300
O524        O  0.10893179  0.99302098  0.10259375    -0.75000
O525        O  0.00389076  0.90018722  0.00558608    -0.74400
O526        O  0.14309530  0.95163448  0.06991417    -0.74900
O527        O  0.14374294  0.95643015  0.46464645    -0.74800
O528        O  0.11161728  0.99458083  0.41886139    -0.74600
C529        C  0.05875766  0.56737192  0.00307450     0.77200
C530        C  0.45540590  0.97676706  0.10323926     0.77700
C531        C  0.45845842  0.97518151  0.41690649     0.76600
C532        C  0.04229772  0.88473893  0.00475386     0.77000
C533        C  0.14019379  0.97108587  0.10285464     0.78200
C534        C  0.14377384  0.97378648  0.42722099     0.77200
C535        C  0.22487590  0.93446455  0.34190102    -0.20200
C536        C  0.23753588  0.96089703  0.30924393    -0.06800
C537        C  0.21462373  0.99167895  0.31857753     0.14100
C538        C  0.19152581  0.99549921  0.36078032    -0.20300
C539        C  0.18049478  0.96906785  0.39138530    -0.06800
C540        C  0.19812514  0.93804690  0.38219530     0.14000
C541        C  0.18742170  0.90792328  0.41363563    -0.23600
H542        H  0.23342346  0.90955992  0.33599001     0.15300
H543        H  0.17675343  0.01916999  0.36755214     0.15400
C544        C  0.20305619  0.01999927  0.28531990    -0.23600
H545        H  0.20328632  0.88537219  0.40093672     0.05600
H546        H  0.14846630  0.90304030  0.41633151     0.08800
H547        H  0.20235676  0.91193880  0.44825712     0.08800
H548        H  0.16402591  0.02318206  0.28530916     0.08800
H549        H  0.21084810  0.01635533  0.24962950     0.08800
H550        H  0.21978466  0.04358803  0.29610320     0.05600
C551        C  0.18744570  0.96243501  0.22497408    -0.20200
C552        C  0.23710136  0.95732552  0.21961911    -0.06800
C553        C  0.24872614  0.94774038  0.17361705     0.14100
C554        C  0.21801795  0.95499566  0.13647387    -0.20300
C555        C  0.17268878  0.96700843  0.14297534    -0.06800
C556        C  0.15662392  0.96943828  0.18841406     0.14000
C557        C  0.10590598  0.97732628  0.19925803    -0.23600
H558        H  0.17065098  0.96032247  0.25825201     0.15300
H559        H  0.22865581  0.94922415  0.10197376     0.15400
C560        C  0.28779079  0.92500428  0.16116341    -0.23600
H561        H  0.09855064  0.97629462  0.23684404     0.05600
H562        H  0.08104177  0.95927421  0.18341224     0.08800
H563        H  0.09864549  0.00273809  0.18607568     0.08800
H564        H  0.31379007  0.92003259  0.18827340     0.08800
H565        H  0.30763297  0.93519263  0.13032089     0.08800
H566        H  0.27143887  0.90084484  0.15197439     0.05600
C567        C  0.43197204  0.99604313  0.33965286    -0.20200
C568        C  0.42179511  0.97641103  0.37959242    -0.06800
C569        C  0.37694524  0.95943807  0.38272539     0.14100
C570        C  0.34555283  0.96120548  0.34521021    -0.20300
C571        C  0.35591732  0.97899909  0.30349729    -0.06800
C572        C  0.40016465  0.99861908  0.30272610     0.14000
C573        C  0.41660415  0.02339634  0.26463222    -0.23600
H574        H  0.46535177  0.01026726  0.33711605     0.15300
H575        H  0.31299004  0.44548766  0.34866188     0.15400
C576        C  0.36095985  0.43552128  0.42483442    -0.23600
H577        H  0.45059001  0.01565727  0.24984463     0.05600
H578        H  0.39174263  0.02710133  0.23600711     0.08800
H579        H  0.42287623  0.04799673  0.27929644     0.08800
H580        H  0.35868649  0.45037331  0.45581115     0.08800
H581        H  0.38453107  0.91845180  0.43180593     0.08800
H582        H  0.32542206  0.42337241  0.42017460     0.05600
C583        C  0.34402957  0.48571234  0.17424949    -0.20200
C584        C  0.35385678  0.97211798  0.21785941    -0.06800
C585        C  0.39899783  0.95534670  0.21947833     0.14100
C586        C  0.43105874  0.95835393  0.18200678    -0.20300
C587        C  0.42035676  0.97504898  0.14102229    -0.06800
C588        C  0.37573667  0.48794441  0.13680002     0.14000
C589        C  0.36015071  0.50259598  0.09092881    -0.23600
H590        H  0.30945529  0.49203201  0.16499234     0.15300
H591        H  0.46520657  0.94688414  0.18451900     0.15400
C592        C  0.41832406  0.93352159  0.25781941    -0.23600
H593        H  0.32321579  0.51113625  0.09214762     0.05600
H594        H  0.36169962  0.48379031  0.06447135     0.08800
H595        H  0.38388831  0.52416690  0.08044517     0.08800
H596        H  0.42455717  0.90866241  0.24497731     0.08800
H597        H  0.39578403  0.92971553  0.28762815     0.08800
H598        H  0.45274704  0.94423859  0.26976352     0.05600
C599        C  0.33201447  0.86767751  0.25715025    -0.20200
C600        C  0.29554687  0.84680756  0.24066587    -0.06800
C601        C  0.24926581  0.85971056  0.23826364     0.14100
C602        C  0.24216572  0.89215933  0.25152510    -0.20300
C603        C  0.27954533  0.91373543  0.26654088    -0.06800
C604        C  0.32074817  0.89617695  0.28076568     0.14000
C605        C  0.33067588  0.88913948  0.33181759    -0.23600
H606        H  0.36616617  0.85710229  0.26399220     0.15300
H607        H  0.20666082  0.90108264  0.24863920     0.15400
C608        C  0.20675254  0.84048788  0.22038999    -0.23600
H609        H  0.36600988  0.89877268  0.34210177     0.05600
H610        H  0.33092220  0.86212603  0.34078400     0.08800
H611        H  0.30320156  0.89744669  0.35496671     0.08800
H612        H  0.19692250  0.81924830  0.24442816     0.08800
H613        H  0.21472617  0.83183226  0.18563288     0.08800
H614        H  0.17497001  0.85576179  0.21710458     0.05600
C615        C  0.28822789  0.53386032  0.22076684    -0.20200
C616        C  0.30511871  0.51752882  0.26142430    -0.06800
C617        C  0.31159275  0.53954981  0.29919177     0.14100
C618        C  0.31688184  0.57379570  0.29054990    -0.20300
C619        C  0.30679918  0.58885745  0.24784467    -0.06800
C620        C  0.28920025  0.56852025  0.21325277     0.14000
C621        C  0.26841955  0.58294168  0.16942888    -0.23600
H622        H  0.26720330  0.52020819  0.19709397     0.15300
H623        H  0.32610124  0.58916723  0.31898164     0.15400
C624        C  0.30760022  0.52991677  0.35003142    -0.23600
H625        H  0.25335077  0.56347680  0.14747154     0.05600
H626        H  0.29636369  0.59701182  0.14893671     0.08800
H627        H  0.23938793  0.59947815  0.17775263     0.08800
H628        H  0.34248158  0.53345094  0.36702722     0.08800
H629        H  0.29299209  0.50480100  0.35745094     0.08800
H630        H  0.28206377  0.54596803  0.36657884     0.05600
C631        C  0.48522411  0.72925790  0.36010634    -0.20200
C632        C  0.43927602  0.71825589  0.37041750    -0.06800
C633        C  0.42663180  0.71319743  0.41708292     0.14100
C634        C  0.46035555  0.71928453  0.45151708    -0.20300
C635        C  0.50911076  0.72860412  0.44293344    -0.06800
C636        C  0.51776684  0.73809733  0.39447401     0.14000
C637        C  0.05323780  0.77293645  0.37407342    -0.23600
H638        H  0.49396659  0.73441066  0.32405876     0.15300
H639        H  0.44507946  0.72063401  0.48491726     0.15400
C640        C  0.37613170  0.70485747  0.43131230    -0.23600
H641        H  0.05274057  0.77739835  0.33609824     0.05600
H642        H  0.08884854  0.76477933  0.38026405     0.08800
H643        H  0.04463009  0.79706093  0.38736074     0.08800
H644        H  0.36409690  0.68079208  0.41784764     0.08800
H645        H  0.35422498  0.72497589  0.41746438     0.08800
H646        H  0.37130843  0.70297392  0.46926985     0.05600
C647        C  0.48420916  0.74941046  0.11239217    -0.20200
C648        C  0.44904531  0.72405925  0.11459422    -0.06800
C649        C  0.45142469  0.69996377  0.08131464     0.14100
C650        C  0.48308341  0.70489264  0.04391765    -0.20300
C651        C  0.51480464  0.73293274  0.03604913    -0.06800
C652        C  0.51805106  0.75319275  0.07611573     0.14000
C653        C  0.55605409  0.77925633  0.08450357    -0.23600
H654        H  0.48565824  0.76675136  0.13968939     0.15300
H655        H  0.47537045  0.68825313  0.01815606     0.15400
C656        C  0.41965672  0.66890571  0.08319249    -0.23600
H657        H  0.57475261  0.77284927  0.11704278     0.05600
H658        H  0.54013082  0.80369152  0.08750594     0.08800
H659        H  0.08765001  0.77801481  0.05745564     0.08800
H660        H  0.38218269  0.67521174  0.07710237     0.08800
H661        H  0.42323075  0.65546922  0.11704990     0.08800
H662        H  0.42911255  0.65150092  0.05653171     0.05600
C663        C  0.08231295  0.83647393  0.97714190    -0.20200
C664        C  0.04174036  0.84872171  0.99653407    -0.06800
C665        C  0.50054496  0.82354492  0.49958609     0.14100
C666        C  0.50462527  0.79002507  0.49067930    -0.20300
C667        C  0.04914353  0.77882228  0.98125536    -0.06800
C668        C  0.08651123  0.80309411  0.96709135     0.14000
C669        C  0.12797650  0.79975106  0.93480948    -0.23600
H670        H  0.11116211  0.85399275  0.96739574     0.15300
H671        H  0.47286000  0.77461111  0.49635412     0.15400
C672        C  0.45386286  0.83491363  0.51743437    -0.23600
H673        H  0.16009891  0.81381972  0.94605186     0.05600
H674        H  0.11531902  0.81822879  0.40096570     0.08800
H675        H  0.13706327  0.77462698  0.93066200     0.08800
H676        H  0.43887893  0.85322359  0.49255663     0.08800
H677        H  0.45634867  0.85220680  0.05552184     0.08800
H678        H  0.42712458  0.81418014  0.52247439     0.05600
C679        C  0.17327742  0.72885826  0.44757858    -0.20200
C680        C  0.12413167  0.72107691  0.44270579    -0.06800
C681        C  0.11243202  0.70785798  0.39794007     0.14100
C682        C  0.14450308  0.71304847  0.36088616    -0.20300
C683        C  0.19122526  0.72306412  0.36776975    -0.06800
C684        C  0.20602558  0.73086966  0.41159086     0.14000
C685        C  0.25719818  0.73953764  0.42133690    -0.23600
H686        H  0.18939362  0.72926611  0.48031115     0.15300
H687        H  0.13508944  0.70512384  0.32687184     0.15400
C688        C  0.07363506  0.68243308  0.38727678    -0.23600
H689        H  0.26276345  0.74701620  0.45722959     0.05600
H690        H  0.27030371  0.76026169  0.39773711     0.08800
H691        H  0.27767901  0.71729403  0.41634633     0.08800
H692        H  0.07200942  0.67702417  0.35021612     0.08800
H693        H  0.03782496  0.68982494  0.39452721     0.08800
H694        H  0.08155909  0.65841045  0.40462819     0.05600
C695        C  0.10929439  0.70131138  0.07482622    -0.20200
C696        C  0.12252359  0.72199935  0.03493289    -0.06800
C697        C  0.16334682  0.74441955  0.04361983     0.14100
C698        C  0.19429098  0.73705887  0.07986562    -0.20300
C699        C  0.18374732  0.71303488  0.11359538    -0.06800
C700        C  0.13926262  0.69640675  0.11320819     0.14000
C701        C  0.12448093  0.67238733  0.15205637    -0.23600
H702        H  0.07670875  0.68637298  0.07478826     0.15300
H703        H  0.22740000  0.75135873  0.08338173     0.15400
C704        C  0.17831112  0.77680285  0.01904508    -0.23600
H705        H  0.08873795  0.66084442  0.14632548     0.05600
H706        H  0.12346752  0.68543676  0.18473745     0.08800
H707        H  0.15034261  0.65244839  0.15528263     0.08800
H708        H  0.18614433  0.78194576  0.48592987     0.08800
H709        H  0.20070598  0.79870342  0.53676827     0.08800
H710        H  0.15092472  0.79493018  0.02198610     0.05600
C711        C  0.03754624  0.66523293  0.47920586    -0.20200
C712        C  0.08497958  0.67447747  0.99096067    -0.06800
C713        C  0.12100023  0.65106486  0.00473844     0.14100
C714        C  0.10868917  0.61729880  0.01271130    -0.20300
C715        C  0.06488101  0.60385232  0.00056624    -0.06800
C716        C  0.02730909  0.63087318  0.48305596     0.14000
C717        C  0.98020341  0.61711788  0.46680649    -0.23600
H718        H  0.01224482  0.67938052  0.46097670     0.15300
H719        H  0.13515429  0.60029934  0.02491970     0.15400
C720        C  0.17399461  0.65858419  0.00747092    -0.23600
H721        H  0.45934545  0.62747151  0.45838217     0.05600
H722        H  0.46098917  0.60080637  0.00334536     0.08800
H723        H  0.48732930  0.59058961  0.44237502     0.08800
H724        H  0.19366446  0.63719892  0.02156045     0.08800
H725        H  0.17975867  0.68549318  0.53024444     0.08800
H726        H  0.18869866  0.66324200  0.97238922     0.05600
C727        C  0.09068077  0.72039195  0.48741686    -0.02400
C728        C  0.04079902  0.74448748  0.48448939    -0.02400
Zn729      Zn  0.37156036  0.75319289  0.73563935     1.49700
Zn730      Zn  0.25689389  0.74842546  0.73399098     1.49400
Zn731      Zn  0.31359662  0.69545904  0.68066062     1.49100
Zn732      Zn  0.31417108  0.69446470  0.78978088     1.49500
O733        O  0.31472302  0.72313549  0.73451788    -1.84100
O734        O  0.35163191  0.80193397  0.73409730    -0.74700
O735        O  0.21231238  0.73589640  0.68399394    -0.74500
O736        O  0.37422526  0.70601289  0.64387821    -0.74000
O737        O  0.27299401  0.79702582  0.72844166    -0.74700
O738        O  0.41538859  0.74430272  0.68093809    -0.74300
O739        O  0.25400249  0.70251840  0.64233680    -0.76900
O740        O  0.30945283  0.64745490  0.77403893    -0.74300
O741        O  0.21924988  0.74167518  0.79176174    -0.75000
O742        O  0.31130960  0.64629653  0.69815817    -0.74400
O743        O  0.25876179  0.70254783  0.82893412    -0.74900
O744        O  0.37056483  0.70161729  0.83075515    -0.74800
O745        O  0.40863830  0.74456536  0.79546055    -0.74600
C746        C  0.31098328  0.81486350  0.73086792     0.77200
C747        C  0.21637030  0.71805588  0.64960279     0.77700
C748        C  0.41154467  0.72455141  0.64791780     0.76600
C749        C  0.30889012  0.63135337  0.73754973     0.77000
C750        C  0.22489585  0.72222396  0.82642906     0.78200
C751        C  0.40416889  0.72344817  0.82942988     0.77200
C752        C  0.32520624  0.48623165  0.75997477    -0.02400
C753        C  0.27493940  0.95951880  0.75698047    -0.02400
Zn754      Zn  0.05456573  0.00291181  0.94972738     1.49700
Zn755      Zn  0.04614994  0.01034374  0.56265880     1.49400
Zn756      Zn  0.98564817  0.95482618  0.50877976     1.49100
Zn757      Zn  0.09799863  0.95150388  0.51748740     1.49500
O758        O  0.04544445  0.98146511  0.51026049    -1.84100
O759        O  0.05759798  0.55195489  0.96582831    -0.74700
O760        O  0.98708260  0.00078944  0.60123190    -0.74500
O761        O  0.44660933  0.96291799  0.95565410    -0.74000
O762        O  0.05136103  0.55834160  0.54344395    -0.74700
O763        O  0.99740861  0.99394002  0.90913271    -0.74300
O764        O  0.45178513  0.95231837  0.56674301    -0.74900
O765        O  0.07461847  0.90429666  0.51575784    -0.74300
O766        O  0.10188200  0.00167989  0.60531167    -0.75000
O767        O  0.99708333  0.90609497  0.50456335    -0.74400
O768        O  0.13559462  0.95906688  0.57477668    -0.74900
O769        O  0.14974562  0.95457144  0.95720758    -0.74800
O770        O  0.11387741  0.99232011  0.91353261    -0.74600
C771        C  0.05483078  0.57324599  0.50393129     0.77200
C772        C  0.45769059  0.97309810  0.59799097     0.77700
C773        C  0.45590026  0.98030422  0.91894694     0.76600
C774        C  0.03477113  0.88991768  0.50762538     0.77000
C775        C  0.13360910  0.98012370  0.60575406     0.78200
C776        C  0.14756662  0.97247267  0.92029978     0.77200
C777        C  0.22439352  0.93651298  0.82842700    -0.20200
C778        C  0.24157059  0.96467804  0.80129328    -0.06800
C779        C  0.21884089  0.99495085  0.81281365     0.14100
C780        C  0.19566067  0.99708105  0.85541398    -0.20300
C781        C  0.18342881  0.96923805  0.88317852    -0.06800
C782        C  0.19797688  0.93834327  0.86937203     0.14000
C783        C  0.18400807  0.90673723  0.89640605    -0.23600
H784        H  0.22955449  0.91198716  0.81725647     0.15300
H785        H  0.18138094  0.02047650  0.86432027     0.15400
C786        C  0.20582815  0.02346781  0.78042983    -0.23600
H787        H  0.19728800  0.88460929  0.88011126     0.05600
H788        H  0.14473982  0.90381129  0.89894533     0.08800
H789        H  0.19940894  0.90724907  0.93141796     0.08800
H790        H  0.16674934  0.02628827  0.78168605     0.08800
H791        H  0.21245317  0.02027933  0.74411831     0.08800
H792        H  0.22243042  0.04704226  0.79137409     0.05600
C793        C  0.18875007  0.96348190  0.72211718    -0.20200
C794        C  0.23932625  0.96701638  0.71410018    -0.06800
C795        C  0.25100394  0.96908687  0.66537317     0.14100
C796        C  0.21666181  0.97813147  0.63248156    -0.20300
C797        C  0.16854353  0.97849625  0.64350215    -0.06800
C798        C  0.15429027  0.97030547  0.68878619     0.14000
C799        C  0.10229457  0.96684434  0.70176216    -0.23600
H800        H  0.17429703  0.95438204  0.75477508     0.15300
H801        H  0.22681043  0.98101263  0.59642728     0.15400
C802        C  0.29368071  0.95509607  0.64343189    -0.23600
H803        H  0.09685555  0.95949881  0.73871929     0.05600
H804        H  0.08430838  0.94770840  0.68115879     0.08800
H805        H  0.08523042  0.99080141  0.69515515     0.08800
H806        H  0.31539860  0.94101735  0.66752772     0.08800
H807        H  0.31436812  0.97477050  0.62372626     0.08800
H808        H  0.28179343  0.93661717  0.61841367     0.05600
C809        C  0.43753867  0.99585854  0.83784541    -0.20200
C810        C  0.42179986  0.98094376  0.87963034    -0.06800
C811        C  0.37406357  0.96926887  0.88272579     0.14100
C812        C  0.34504303  0.97135648  0.84342443    -0.20300
C813        C  0.36029517  0.98451554  0.79991840    -0.06800
C814        C  0.40776853  0.99990468  0.79960221     0.14000
C815        C  0.42852525  0.02331335  0.76204360    -0.23600
H816        H  0.47374714  0.00583919  0.83533254     0.15300
H817        H  0.30879003  0.46550594  0.85205477     0.15400
C818        C  0.35287190  0.45483325  0.93023605    -0.23600
H819        H  0.44274525  0.00942993  0.73352892     0.05600
H820        H  0.40273728  0.04172986  0.75060856     0.08800
H821        H  0.45935944  0.03836306  0.77424086     0.08800
H822        H  0.35631156  0.47359002  0.95677190     0.08800
H823        H  0.36937540  0.93318353  0.93960016     0.08800
H824        H  0.31448230  0.44818658  0.92685643     0.05600
C825        C  0.37069134  0.50735271  0.68302697    -0.20200
C826        C  0.36016205  0.98138128  0.71392175    -0.06800
C827        C  0.39026120  0.95338186  0.70892095     0.14100
C828        C  0.41659627  0.94987003  0.66809836    -0.20300
C829        C  0.42163393  0.97522654  0.63447958    -0.06800
C830        C  0.39946484  0.50464869  0.64421723     0.14000
C831        C  0.40661743  0.53402618  0.61053830    -0.23600
H832        H  0.36296467  0.53235346  0.68816343     0.15300
H833        H  0.43773353  0.92828061  0.66464639     0.15400
C834        C  0.40380892  0.92871537  0.74607783    -0.23600
H835        H  0.38481492  0.55506900  0.61954526     0.05600
H836        H  0.39621413  0.52683727  0.57552304     0.08800
H837        H  0.44435186  0.54292266  0.61010133     0.08800
H838        H  0.39554000  0.90335150  0.73503260     0.08800
H839        H  0.38790024  0.93214016  0.77931677     0.08800
H840        H  0.44275320  0.93102487  0.75168825     0.05600
C841        C  0.32551769  0.86613341  0.77227932    -0.20200
C842        C  0.30631694  0.85117336  0.73427109    -0.06800
C843        C  0.27465234  0.86903933  0.70707836     0.14100
C844        C  0.26424664  0.90137550  0.71806694    -0.20300
C845        C  0.28649722  0.91980343  0.75394432    -0.06800
C846        C  0.31259508  0.89785369  0.78560848     0.14000
C847        C  0.32259329  0.90099933  0.83647646    -0.23600
H848        H  0.34716076  0.85105864  0.79506405     0.15300
H849        H  0.23604813  0.91091178  0.69756307     0.15400
C850        C  0.25160556  0.85422487  0.66552741    -0.23600
H851        H  0.36057890  0.90700843  0.84288761     0.05600
H852        H  0.31499971  0.87681814  0.85526992     0.08800
H853        H  0.29912134  0.91615917  0.85517819     0.08800
H854        H  0.22687998  0.83330579  0.67623557     0.08800
H855        H  0.27939017  0.84543860  0.64237499     0.08800
H856        H  0.23078647  0.87245464  0.64530112     0.05600
C857        C  0.28930189  0.53878046  0.71872264    -0.20200
C858        C  0.30908611  0.52397199  0.75932919    -0.06800
C859        C  0.31790634  0.54690481  0.79552514     0.14100
C860        C  0.32050365  0.58086378  0.78507770    -0.20300
C861        C  0.30671776  0.59463106  0.74279259    -0.06800
C862        C  0.28862473  0.57325774  0.70970769     0.14000
C863        C  0.26959503  0.58623492  0.66434302    -0.23600
H864        H  0.27947278  0.52371932  0.69087351     0.15300
H865        H  0.33189525  0.59712334  0.81184349     0.15400
C866        C  0.31778450  0.53890697  0.84685829    -0.23600
H867        H  0.25527582  0.56599459  0.64328785     0.05600
H868        H  0.29841046  0.59960240  0.64410009     0.08800
H869        H  0.24035611  0.60311464  0.67041762     0.08800
H870        H  0.35430520  0.53566391  0.85968396     0.08800
H871        H  0.29308312  0.51821204  0.85677541     0.08800
H872        H  0.30360192  0.55948211  0.86612481     0.05600
C873        C  0.48476405  0.73534981  0.85889792    -0.20200
C874        C  0.43836995  0.72492351  0.86846812    -0.06800
C875        C  0.42428371  0.72186264  0.91490963     0.14100
C876        C  0.45732877  0.72799038  0.94986781    -0.20300
C877        C  0.50660901  0.73572860  0.94217989    -0.06800
C878        C  0.51652238  0.74462139  0.89378093     0.14000
C879        C  0.05368546  0.76919317  0.87554489    -0.23600
H880        H  0.49460602  0.73967810  0.82295825     0.15300
H881        H  0.44151298  0.73056310  0.98289207     0.15400
C882        C  0.37312491  0.71591144  0.92803839    -0.23600
H883        H  0.05209342  0.77448937  0.83777509     0.05600
H884        H  0.08924382  0.76067281  0.88038772     0.08800
H885        H  0.04624692  0.79311232  0.89015078     0.08800
H886        H  0.35978138  0.69172748  0.91595112     0.08800
H887        H  0.35333155  0.73646052  0.91206357     0.08800
H888        H  0.36708220  0.71561539  0.96581248     0.05600
C889        C  0.48612877  0.74858829  0.60962602    -0.20200
C890        C  0.45097931  0.72330088  0.61303349    -0.06800
C891        C  0.45530499  0.69696795  0.58352801     0.14100
C892        C  0.48851016  0.69974974  0.54716879    -0.20300
C893        C  0.51866345  0.72819430  0.53653265    -0.06800
C894        C  0.52119754  0.75033572  0.57455399     0.14000
C895        C  0.55996829  0.77604857  0.58205899    -0.23600
H896        H  0.48661999  0.76741582  0.63494017     0.15300
H897        H  0.48340197  0.68088577  0.52402486     0.15400
C898        C  0.42440408  0.66561906  0.58883485    -0.23600
H899        H  0.57733376  0.77058577  0.61560476     0.05600
H900        H  0.54508718  0.80097528  0.58261252     0.08800
H901        H  0.08038496  0.78430367  0.55724019     0.08800
H902        H  0.38708868  0.67077318  0.58002266     0.08800
H903        H  0.42654275  0.65506506  0.62463574     0.08800
H904        H  0.43580085  0.64631443  0.56571562     0.05600
C905        C  0.07478416  0.84263983  0.47746862    -0.20200
C906        C  0.03425362  0.85421385  0.49772765    -0.06800
C907        C  0.49709163  0.82975529  0.00335176     0.14100
C908        C  0.50128091  0.79625643  0.99411602    -0.20300
C909        C  0.04318201  0.78462040  0.48140514    -0.06800
C910        C  0.07961623  0.80942892  0.46679500     0.14000
C911        C  0.12182285  0.80638828  0.43535118    -0.23600
H912        H  0.10321650  0.86055205  0.46803871     0.15300
H913        H  0.46974406  0.78079695  0.00037195     0.15400
C914        C  0.45058306  0.84097795  0.02180480    -0.23600
H915        H  0.15323872  0.82110543  0.44683903     0.05600
H916        H  0.12086031  0.81195022  0.90075986     0.08800
H917        H  0.13181313  0.78124082  0.43240430     0.08800
H918        H  0.43516699  0.85922451  0.99710945     0.08800
H919        H  0.45923855  0.84607037  0.55125898     0.08800
H920        H  0.42402709  0.82016412  0.02716195     0.05600
C921        C  0.17649262  0.72198139  0.94623796    -0.20200
C922        C  0.12721034  0.71529777  0.94176370    -0.06800
C923        C  0.11433606  0.70403326  0.89632143     0.14100
C924        C  0.14509104  0.71150202  0.85860301    -0.20300
C925        C  0.19168553  0.72222780  0.86506243    -0.06800
C926        C  0.20789466  0.72671892  0.90949813     0.14000
C927        C  0.25916205  0.73496426  0.91887209    -0.23600
H928        H  0.19337504  0.72061043  0.97865782     0.15300
H929        H  0.13476993  0.70513749  0.82413769     0.15400
C930        C  0.07577113  0.67861388  0.88527503    -0.23600
H931        H  0.26582555  0.73975996  0.95561650     0.05600
H932        H  0.27124268  0.75733368  0.89788802     0.08800
H933        H  0.27973112  0.71345805  0.91004223     0.08800
H934        H  0.07381619  0.67399062  0.84797702     0.08800
H935        H  0.03998706  0.68563413  0.89361291     0.08800
H936        H  0.08423695  0.65439011  0.90172099     0.05600
C937        C  0.10593923  0.70740760  0.57526648    -0.20200
C938        C  0.11794852  0.72871203  0.53563526    -0.06800
C939        C  0.15723013  0.75237801  0.54479703     0.14100
C940        C  0.18836041  0.74589516  0.58114289    -0.20300
C941        C  0.18020987  0.72060044  0.61347339    -0.06800
C942        C  0.13704652  0.70232377  0.61274581     0.14000
C943        C  0.12499598  0.67644999  0.65010826    -0.23600
H944        H  0.07374165  0.69200089  0.57539164     0.15300
H945        H  0.22035089  0.76131675  0.58523968     0.15400
C946        C  0.17112723  0.78489910  0.52011872    -0.23600
H947        H  0.09006321  0.66375856  0.64422308     0.05600
H948        H  0.12365832  0.68811830  0.68383440     0.08800
H949        H  0.15254409  0.65757943  0.65123197     0.08800
H950        H  0.19235538  0.77392657  0.98448675     0.08800
H951        H  0.20880694  0.78976364  0.03547456     0.08800
H952        H  0.14299670  0.80248608  0.52253714     0.05600
C953        C  0.04145938  0.65921645  0.97772310    -0.20200
C954        C  0.08113983  0.68061169  0.49193970    -0.06800
C955        C  0.11741136  0.65728008  0.50527035     0.14100
C956        C  0.10547586  0.62333407  0.51271376    -0.20300
C957        C  0.06144886  0.60978868  0.50111100    -0.06800
C958        C  0.03105600  0.62489753  0.98174097     0.14000
C959        C  0.98384842  0.61123497  0.96559257    -0.23600
H960        H  0.01555271  0.67355646  0.96061868     0.15300
H961        H  0.13224054  0.60638162  0.52433150     0.15400
C962        C  0.17031388  0.66524113  0.50786517    -0.23600
H963        H  0.45528468  0.63373150  0.96041693     0.05600
H964        H  0.46470236  0.59384750  0.50027835     0.08800
H965        H  0.48273940  0.59638097  0.94539826     0.08800
H966        H  0.19021504  0.64411499  0.52241641     0.08800
H967        H  0.18370137  0.67841328  0.03043469     0.08800
H968        H  0.18492359  0.66974308  0.47271543     0.05600
C969        C  0.58997662  0.21716318  0.98581728    -0.02400
C970        C  0.54066057  0.24181197  0.98319005    -0.02400
Zn971      Zn  0.86781682  0.25274475  0.23267639     1.49700
Zn972      Zn  0.75358070  0.24370512  0.23415184     1.49400
Zn973      Zn  0.81297932  0.19322674  0.17908016     1.49100
Zn974      Zn  0.81491781  0.19149264  0.28821539     1.49500
O975        O  0.81306042  0.22053281  0.23310498    -1.84100
O976        O  0.84468336  0.30119122  0.23161561    -0.74700
O977        O  0.70896264  0.23079484  0.18431734    -0.74500
O978        O  0.87311540  0.20475133  0.14189228    -0.74000
O979        O  0.76676716  0.29262084  0.22953104    -0.74700
O980        O  0.91170923  0.24495245  0.17740241    -0.74300
O981        O  0.75332327  0.20020186  0.14091177    -0.76900
O982        O  0.81265606  0.14424776  0.27243580    -0.74300
O983        O  0.71743865  0.23540799  0.29263629    -0.75000
O984        O  0.81244621  0.14399897  0.19642652    -0.74400
O985        O  0.76030589  0.19823627  0.32995748    -0.74900
O986        O  0.87211283  0.20009523  0.32676771    -0.74800
O987        O  0.90643096  0.24476713  0.29178987    -0.74600
C988        C  0.80276460  0.31242696  0.23090209     0.77200
C989        C  0.71462863  0.21437189  0.14876685     0.77700
C990        C  0.90917509  0.22458317  0.14503184     0.76600
C991        C  0.81179728  0.12857985  0.23554392     0.77000
C992        C  0.72499057  0.21671546  0.32769801     0.78200
C993        C  0.90407142  0.22306569  0.32520485     0.77200
C994        C  0.82286581  0.98238011  0.25600023    -0.02400
C995        C  0.77388286  0.45485676  0.26200780    -0.02400
Zn996      Zn  0.55242234  0.49997610  0.45419303     1.49700
Zn997      Zn  0.55140635  0.50610296  0.06688638     1.49400
Zn998      Zn  0.48772761  0.45180548  0.01365429     1.49100
Zn999      Zn  0.60096035  0.44916846  0.01589513     1.49500
O1000       O  0.54775441  0.47858423  0.01338982    -1.84100
O1001       O  0.55694500  0.04903614  0.46549266    -0.74700
O1002       O  0.49324863  0.49685957  0.10729123    -0.74500
O1003       O  0.94716786  0.46614777  0.45488147    -0.74000
O1004       O  0.55016912  0.05571517  0.04406877    -0.74700
O1005       O  0.49478863  0.49198240  0.41443574    -0.74300
O1006       O  0.95083786  0.45707028  0.06544458    -0.74900
O1007       O  0.57825923  0.40237945  0.00928966    -0.74300
O1008       O  0.60868037  0.49501208  0.10636500    -0.75000
O1009       O  0.49980440  0.40312426  0.00873072    -0.74400
O1010       O  0.63941197  0.45242187  0.07317972    -0.74900
O1011       O  0.64709280  0.45258148  0.46111747    -0.74800
O1012       O  0.61112499  0.49000041  0.41726034    -0.74600
C1013       C  0.55219708  0.07075702  0.00461271     0.77200
C1014       C  0.95734419  0.47620810  0.09856485     0.77700
C1015       C  0.95607474  0.48282375  0.41759537     0.76600
C1016       C  0.53793151  0.38752165  0.00575569     0.77000
C1017       C  0.63885556  0.47237996  0.10555206     0.78200
C1018       C  0.64529768  0.47067147  0.42441228     0.77200
C1019       C  0.73330465  0.43633541  0.34135857    -0.20200
C1020       C  0.74193437  0.46227276  0.30704512    -0.06800
C1021       C  0.71517499  0.49174868  0.31490620     0.14100
C1022       C  0.68917560  0.49439135  0.35595000    -0.20300
C1023       C  0.68228868  0.46817349  0.38811535    -0.06800
C1024       C  0.70582807  0.43887062  0.38117317     0.14000
C1025       C  0.70118879  0.40917054  0.41458946    -0.23600
H1026       H  0.74684158  0.41249866  0.33769299     0.15300
H1027       H  0.67026489  0.51677526  0.36110155     0.15400
C1028       C  0.70385754  0.51959059  0.28077597    -0.23600
H1029       H  0.72168471  0.38806837  0.40341719     0.05600
H1030       H  0.66344019  0.40044576  0.41782678     0.08800
H1031       H  0.71519700  0.41578208  0.44869249     0.08800
H1032       H  0.66468250  0.52143629  0.27814408     0.08800
H1033       H  0.71487947  0.51613265  0.24576407     0.08800
H1034       H  0.71824862  0.54361984  0.29245002     0.05600
C1035       C  0.68934052  0.46074334  0.22501833    -0.20200
C1036       C  0.73942085  0.45831376  0.21791723    -0.06800
C1037       C  0.75049896  0.45024443  0.17131937     0.14100
C1038       C  0.71873109  0.45804223  0.13532834    -0.20300
C1039       C  0.67264117  0.46794099  0.14404104    -0.06800
C1040       C  0.65695801  0.46715847  0.18980911     0.14000
C1041       C  0.60520782  0.47051222  0.20201916    -0.23600
H1042       H  0.67352273  0.45650516  0.25856392     0.15300
H1043       H  0.72887235  0.45388671  0.10011486     0.15400
C1044       C  0.78895416  0.42754803  0.15752964    -0.23600
H1045       H  0.59847931  0.46702053  0.23960275     0.05600
H1046       H  0.58308517  0.45160704  0.18461690     0.08800
H1047       H  0.59371064  0.49556036  0.19135615     0.08800
H1048       H  0.81613228  0.42312808  0.18361464     0.08800
H1049       H  0.80736124  0.43752828  0.12574803     0.08800
H1050       H  0.77228780  0.40321020  0.14961670     0.05600
C1051       C  0.93118571  0.50214308  0.33918229    -0.20200
C1052       C  0.92116168  0.48219195  0.37884206    -0.06800
C1053       C  0.87910436  0.46184900  0.37953727     0.14100
C1054       C  0.84958273  0.46181910  0.34071730    -0.20300
C1055       C  0.85863409  0.48141056  0.30025349    -0.06800
C1056       C  0.90121713  0.50271320  0.30071882     0.14000
C1057       C  0.91751220  0.52736370  0.26244893    -0.23600
H1058       H  0.96296523  0.51813750  0.33807082     0.15300
H1059       H  0.81424467  0.95235186  0.34429175     0.15400
C1060       C  0.86146971  0.94359931  0.42064162    -0.23600
H1061       H  0.95279786  0.52061692  0.24949505     0.05600
H1062       H  0.89381959  0.52955199  0.23264170     0.08800
H1063       H  0.92112752  0.55240901  0.27631398     0.08800
H1064       H  0.85881135  0.95996641  0.45000936     0.08800
H1065       H  0.89147355  0.42112433  0.42789119     0.08800
H1066       H  0.82579009  0.93159837  0.41623151     0.05600
C1067       C  0.84895549  0.99179027  0.16825965    -0.20200
C1068       C  0.85726501  0.47445871  0.21443733    -0.06800
C1069       C  0.90291722  0.45824778  0.21605144     0.14100
C1070       C  0.93389097  0.46008454  0.17782863    -0.20300
C1071       C  0.92234095  0.47552721  0.13632803    -0.06800
C1072       C  0.88106498  0.99315756  0.13117075     0.14000
C1073       C  0.87028376  0.01309767  0.08760190    -0.23600
H1074       H  0.81631060  0.00170028  0.15895113     0.15300
H1075       H  0.96816718  0.44873903  0.18021686     0.15400
C1076       C  0.92424857  0.43802983  0.25488869    -0.23600
H1077       H  0.83630774  0.02591472  0.09010937     0.05600
H1078       H  0.86775328  0.99660503  0.05822596     0.08800
H1079       H  0.89904299  0.03220884  0.08059002     0.08800
H1080       H  0.93134423  0.41291787  0.24338368     0.08800
H1081       H  0.90256424  0.43445025  0.28499125     0.08800
H1082       H  0.95838537  0.44995517  0.26553077     0.05600
C1083       C  0.83378033  0.37055938  0.24437749    -0.20200
C1084       C  0.79483617  0.34875364  0.23602094    -0.06800
C1085       C  0.74867286  0.36119077  0.24144840     0.14100
C1086       C  0.74404534  0.39389883  0.25431743    -0.20300
C1087       C  0.78357242  0.41554572  0.26337543    -0.06800
C1088       C  0.82678891  0.39838065  0.27104376     0.14000
C1089       C  0.84068616  0.38823387  0.32063585    -0.23600
H1090       H  0.86896787  0.36067592  0.24425470     0.15300
H1091       H  0.70861452  0.40282420  0.25662295     0.15400
C1092       C  0.70348397  0.34114263  0.23290933    -0.23600
H1093       H  0.87415427  0.39992140  0.33215455     0.05600
H1094       H  0.84636599  0.36124970  0.32564078     0.08800
H1095       H  0.81299003  0.39230772  0.34616923     0.08800
H1096       H  0.69916879  0.32038534  0.25900778     0.08800
H1097       H  0.70412712  0.33173160  0.19768545     0.08800
H1098       H  0.67139328  0.35602441  0.23549429     0.05600
C1099       C  0.78793010  0.03659665  0.21568578    -0.20200
C1100       C  0.80822236  0.02073570  0.25506189    -0.06800
C1101       C  0.81805621  0.04325769  0.29159603     0.14100
C1102       C  0.82411838  0.07719269  0.28157453    -0.20300
C1103       C  0.81026860  0.09177772  0.23971214    -0.06800
C1104       C  0.78942362  0.07114811  0.20705438     0.14000
C1105       C  0.76664925  0.08511276  0.16398182    -0.23600
H1106       H  0.76579412  0.02244636  0.19328845     0.15300
H1107       H  0.83613453  0.09280403  0.30885571     0.15400
C1108       C  0.81525004  0.03485200  0.34284734    -0.23600
H1109       H  0.75002068  0.06542207  0.14337024     0.05600
H1110       H  0.79384272  0.09860275  0.14184806     0.08800
H1111       H  0.73850365  0.10210042  0.17318845     0.08800
H1112       H  0.85091661  0.03713857  0.35861141     0.08800
H1113       H  0.79823885  0.01064865  0.35163650     0.08800
H1114       H  0.79212888  0.05242342  0.35963381     0.05600
C1115       C  0.98450917  0.23589855  0.35424542    -0.20200
C1116       C  0.93823269  0.22534952  0.36393237    -0.06800
C1117       C  0.92368243  0.22323969  0.41019202     0.14100
C1118       C  0.95611141  0.23068433  0.44501342    -0.20300
C1119       C  0.00543904  0.23821427  0.43754033    -0.06800
C1120       C  0.01568739  0.24625873  0.38900808     0.14000
C1121       C  0.55245137  0.26328203  0.37397527    -0.23600
H1122       H  0.99450335  0.23962571  0.31825381     0.15300
H1123       H  0.93983876  0.23403269  0.47763816     0.15400
C1124       C  0.87262044  0.21647474  0.42306233    -0.23600
H1125       H  0.55135360  0.26754599  0.33599109     0.05600
H1126       H  0.58806545  0.25520417  0.37974161     0.08800
H1127       H  0.54442071  0.28755563  0.38715782     0.08800
H1128       H  0.86089574  0.19150226  0.41255792     0.08800
H1129       H  0.85175860  0.23575378  0.40532030     0.08800
H1130       H  0.86602729  0.21738952  0.46064657     0.05600
C1131       C  0.98360298  0.24962124  0.10739867    -0.20200
C1132       C  0.94867900  0.22412990  0.10994451    -0.06800
C1133       C  0.95349008  0.19834806  0.07953559     0.14100
C1134       C  0.98676603  0.20197024  0.04324249    -0.20300
C1135       C  0.01685147  0.23063023  0.03382205    -0.06800
C1136       C  0.01901266  0.25200363  0.07263342     0.14000
C1137       C  0.05782853  0.27743330  0.08129964    -0.23600
H1138       H  0.98384518  0.26799504  0.13333749     0.15300
H1139       H  0.98177556  0.18366479  0.01923463     0.15400
C1140       C  0.92308183  0.16673029  0.08373277    -0.23600
H1141       H  0.07471862  0.27140729  0.11491152     0.05600
H1142       H  0.04309769  0.30237979  0.08237507     0.08800
H1143       H  0.58222937  0.28180874  0.05502203     0.08800
H1144       H  0.88562213  0.17178336  0.07538692     0.08800
H1145       H  0.92561793  0.15545359  0.11910742     0.08800
H1146       H  0.93464967  0.14803887  0.05972413     0.05600
C1147       C  0.57658669  0.33976174  0.97430759    -0.20200
C1148       C  0.53671769  0.35181004  0.99538162    -0.06800
C1149       C  0.99425271  0.33210006  0.50086331     0.14100
C1150       C  0.99848029  0.29877632  0.49056284    -0.20300
C1151       C  0.54401148  0.28193250  0.97963225    -0.06800
C1152       C  0.58074875  0.30631069  0.96431290     0.14000
C1153       C  0.62255845  0.30242149  0.93270247    -0.23600
H1154       H  0.60514104  0.35735039  0.96402257     0.15300
H1155       H  0.96710062  0.28318396  0.49675843     0.15400
C1156       C  0.94785047  0.34306204  0.51988105    -0.23600
H1157       H  0.65443599  0.31681219  0.94382379     0.05600
H1158       H  0.61764430  0.30788880  0.39793670     0.08800
H1159       H  0.63178438  0.27707122  0.93012805     0.08800
H1160       H  0.93245506  0.36175708  0.49584581     0.08800
H1161       H  0.95585619  0.34917718  0.05046959     0.08800
H1162       H  0.92124690  0.32221527  0.52461197     0.05600
C1163       C  0.67523235  0.21856532  0.44741421    -0.20200
C1164       C  0.62599289  0.21178368  0.44250193    -0.06800
C1165       C  0.61387309  0.19927558  0.39755432     0.14100
C1166       C  0.64515435  0.20581725  0.36002648    -0.20300
C1167       C  0.69186430  0.21624232  0.36664112    -0.06800
C1168       C  0.70747388  0.22155396  0.41110353     0.14000
C1169       C  0.75872952  0.22922552  0.42102859    -0.23600
H1170       H  0.69142363  0.21838180  0.48019388     0.15300
H1171       H  0.63506655  0.19893652  0.32571661     0.15400
C1172       C  0.57556561  0.17348721  0.38719799    -0.23600
H1173       H  0.76502123  0.23454371  0.45766836     0.05600
H1174       H  0.77148699  0.25117714  0.39955915     0.08800
H1175       H  0.77892180  0.20728579  0.41324303     0.08800
H1176       H  0.57369938  0.16830446  0.35007418     0.08800
H1177       H  0.53968487  0.18037439  0.39539011     0.08800
H1178       H  0.58429323  0.14955593  0.40438175     0.05600
C1179       C  0.60456006  0.20489751  0.07387782    -0.20200
C1180       C  0.61764178  0.22540726  0.03375888    -0.06800
C1181       C  0.65798165  0.24826722  0.04230306     0.14100
C1182       C  0.68895047  0.24133884  0.07863490    -0.20300
C1183       C  0.67899884  0.21710415  0.11219106    -0.06800
C1184       C  0.63473581  0.20018551  0.11209094     0.14000
C1185       C  0.62041528  0.17608089  0.15099044    -0.23600
H1186       H  0.57192140  0.18997391  0.07415650     0.15300
H1187       H  0.72185906  0.25588282  0.08206183     0.15400
C1188       C  0.67284552  0.28041236  0.01706850    -0.23600
H1189       H  0.58477525  0.16432397  0.14541331     0.05600
H1190       H  0.61937414  0.18912379  0.18367476     0.08800
H1191       H  0.64653438  0.15630361  0.15409539     0.08800
H1192       H  0.68916505  0.27164586  0.48314036     0.08800
H1193       H  0.70573331  0.28869837  0.53307958     0.08800
H1194       H  0.64528803  0.29846641  0.01939705     0.05600
C1195       C  0.53994220  0.15606074  0.47956036    -0.20200
C1196       C  0.57969886  0.17756681  0.99094328    -0.06800
C1197       C  0.61559837  0.15402889  0.00455239     0.14100
C1198       C  0.60306855  0.12031204  0.01252571    -0.20300
C1199       C  0.55861619  0.10716814  0.00188520    -0.06800
C1200       C  0.53004650  0.12170424  0.48344174     0.14000
C1201       C  0.48238914  0.10782954  0.46879609    -0.23600
H1202       H  0.51355997  0.17013774  0.46280093     0.15300
H1203       H  0.62963386  0.10313409  0.02394640     0.15400
C1204       C  0.66865194  0.16138966  0.00719512    -0.23600
H1205       H  0.95714854  0.13691370  0.45141658     0.05600
H1206       H  0.96325529  0.09710788  0.99004300     0.08800
H1207       H  0.98625358  0.10035959  0.43570612     0.08800
H1208       H  0.68805456  0.14014416  0.02211313     0.08800
H1209       H  0.68140563  0.17685543  0.53271338     0.08800
H1210       H  0.68349719  0.16537463  0.97206527     0.05600
C1211       C  0.59275808  0.21137406  0.48717040    -0.02400
C1212       C  0.54315805  0.23564124  0.48408077    -0.02400
Zn1213     Zn  0.86763166  0.25107513  0.73591294     1.49700
Zn1214     Zn  0.75422524  0.24241847  0.73462869     1.49400
Zn1215     Zn  0.81376680  0.19045507  0.68268018     1.49100
Zn1216     Zn  0.81334661  0.18972196  0.79139269     1.49500
O1217       O  0.81317792  0.21856600  0.73580404    -1.84100
O1218       O  0.84408288  0.29956892  0.73746142    -0.74700
O1219       O  0.71051923  0.22923900  0.68488396    -0.74500
O1220       O  0.87289712  0.20340947  0.64455828    -0.74000
O1221       O  0.76656666  0.29130478  0.73055100    -0.74700
O1222       O  0.91026243  0.24475631  0.67875544    -0.74300
O1223       O  0.75385027  0.19604220  0.64454489    -0.76900
O1224       O  0.81004832  0.14177990  0.77692578    -0.74300
O1225       O  0.71685168  0.23497442  0.79169582    -0.75000
O1226       O  0.81391934  0.14122485  0.70101115    -0.74400
O1227       O  0.75808979  0.19811587  0.83158618    -0.74900
O1228       O  0.87038255  0.19835244  0.83056768    -0.74800
O1229       O  0.90665456  0.24197511  0.79477090    -0.74600
C1230       C  0.80225867  0.31093451  0.73509307     0.77200
C1231       C  0.71570925  0.21118614  0.65096350     0.77700
C1232       C  0.90773986  0.22445288  0.64622588     0.76600
C1233       C  0.81085976  0.12590383  0.74019748     0.77000
C1234       C  0.72329558  0.21699756  0.82759427     0.78200
C1235       C  0.90338161  0.22063732  0.82867364     0.77200
C1236       C  0.82018044  0.97932512  0.75940200    -0.02400
C1237       C  0.77156899  0.45325089  0.76516900    -0.02400
Zn1238     Zn  0.55228269  0.50618255  0.95662562     1.49700
Zn1239     Zn  0.55306144  0.49943847  0.56378430     1.49400
Zn1240     Zn  0.48873955  0.44519813  0.51169308     1.49100
Zn1241     Zn  0.60251128  0.44280406  0.51390689     1.49500
O1242       O  0.54889854  0.47193733  0.51081417    -1.84100
O1243       O  0.55306013  0.05512290  0.96759462    -0.74700
O1244       O  0.49368280  0.49219415  0.60133750    -0.74500
O1245       O  0.95155694  0.46043974  0.95301045    -0.74000
O1246       O  0.55908651  0.04885501  0.54192546    -0.74700
O1247       O  0.49522159  0.49721374  0.91714695    -0.74300
O1248       O  0.94725328  0.46079949  0.56727772    -0.74900
O1249       O  0.57919200  0.39613042  0.50718187    -0.74300
O1250       O  0.60776180  0.48722579  0.60549807    -0.75000
O1251       O  0.50068422  0.39666334  0.50601597    -0.74400
O1252       O  0.64052280  0.44549428  0.57240099    -0.74900
O1253       O  0.64544336  0.45804580  0.96341479    -0.74800
O1254       O  0.61082905  0.49573493  0.91909116    -0.74600
C1255       C  0.55893395  0.06431083  0.50281322     0.77200
C1256       C  0.95276529  0.47991432  0.60051247     0.77700
C1257       C  0.95909262  0.47811258  0.91628611     0.76600
C1258       C  0.53892666  0.38116924  0.50338796     0.77000
C1259       C  0.63834798  0.46489737  0.60541714     0.78200
C1260       C  0.64410711  0.47567317  0.92637155     0.77200
C1261       C  0.72944653  0.43697963  0.84451209    -0.20200
C1262       C  0.73934564  0.46210277  0.80934551    -0.06800
C1263       C  0.71384740  0.49235020  0.81586204     0.14100
C1264       C  0.68901271  0.49681558  0.85708907    -0.20300
C1265       C  0.68033796  0.47130317  0.88991422    -0.06800
C1266       C  0.70102728  0.44079766  0.88342478     0.14000
C1267       C  0.69181993  0.41108271  0.91612632    -0.23600
H1268       H  0.74247689  0.41280268  0.84215336     0.15300
H1269       H  0.67180284  0.51997088  0.86158317     0.15400
C1270       C  0.70238266  0.51921382  0.78030760    -0.23600
H1271       H  0.70927404  0.38872540  0.90477691     0.05600
H1272       H  0.65311836  0.40493419  0.91841222     0.08800
H1273       H  0.70599884  0.41628058  0.95067475     0.08800
H1274       H  0.66323548  0.52153857  0.77849869     0.08800
H1275       H  0.71222690  0.51432853  0.74539053     0.08800
H1276       H  0.71779531  0.54348507  0.79003496     0.05600
C1277       C  0.68766661  0.45873910  0.72653518    -0.20200
C1278       C  0.73764676  0.45522512  0.72036614    -0.06800
C1279       C  0.74871538  0.44427891  0.67494225     0.14100
C1280       C  0.71696126  0.44974200  0.63810316    -0.20300
C1281       C  0.67121097  0.46085991  0.64501895    -0.06800
C1282       C  0.65559115  0.46347500  0.69048489     0.14000
C1283       C  0.60418435  0.46895732  0.70194298    -0.23600
H1284       H  0.67157426  0.45678698  0.76013212     0.15300
H1285       H  0.72730411  0.44353419  0.60369865     0.15400
C1286       C  0.78889865  0.42238973  0.66309441    -0.23600
H1287       H  0.59733912  0.46778912  0.73961783     0.05600
H1288       H  0.58097246  0.44965741  0.68662930     0.08800
H1289       H  0.59415284  0.49378710  0.68865716     0.08800
H1290       H  0.81575863  0.41941937  0.68981925     0.08800
H1291       H  0.80751582  0.43219155  0.63132919     0.08800
H1292       H  0.77394318  0.39740493  0.65599663     0.05600
C1293       C  0.93235214  0.49836536  0.83877787    -0.20200
C1294       C  0.92278104  0.47853012  0.87865703    -0.06800
C1295       C  0.87906346  0.46005988  0.88119346     0.14100
C1296       C  0.84816961  0.46079913  0.84333062    -0.20300
C1297       C  0.85736137  0.47952150  0.80218290    -0.06800
C1298       C  0.90075282  0.50008272  0.80157147     0.14000
C1299       C  0.91648081  0.52492288  0.76330141    -0.23600
H1300       H  0.96502732  0.51340871  0.83653609     0.15300
H1301       H  0.81417461  0.94735043  0.84645755     0.15400
C1302       C  0.86260551  0.93891311  0.92250589    -0.23600
H1303       H  0.95106936  0.51786672  0.74903632     0.05600
H1304       H  0.89184854  0.52773600  0.73430520     0.08800
H1305       H  0.92136212  0.54975152  0.77761312     0.08800
H1306       H  0.86167520  0.95502520  0.95229644     0.08800
H1307       H  0.88865746  0.41932689  0.93028938     0.08800
H1308       H  0.82635663  0.92758350  0.91904559     0.05600
C1309       C  0.84058029  0.98619776  0.67039783    -0.20200
C1310       C  0.85378722  0.47278072  0.71647809    -0.06800
C1311       C  0.89996194  0.45742506  0.71722884     0.14100
C1312       C  0.93094653  0.46130254  0.67917477    -0.20300
C1313       C  0.91826136  0.47748385  0.63848635    -0.06800
C1314       C  0.87156788  0.98978300  0.63254481     0.14000
C1315       C  0.85545415  0.00628793  0.58806007    -0.23600
H1316       H  0.80553182  0.99192611  0.66191826     0.15300
H1317       H  0.96589882  0.45091179  0.68096821     0.15400
C1318       C  0.92126438  0.43604912  0.75490354    -0.23600
H1319       H  0.81863781  0.01489988  0.59059578     0.05600
H1320       H  0.85652646  0.98864465  0.56004653     0.08800
H1321       H  0.87923345  0.02812468  0.57894999     0.08800
H1322       H  0.92861153  0.41146213  0.74170270     0.08800
H1323       H  0.89930453  0.43148445  0.78487049     0.08800
H1324       H  0.95530069  0.44764411  0.76638975     0.05600
C1325       C  0.83223719  0.36869837  0.75199000    -0.20200
C1326       C  0.79376504  0.34704965  0.74180755    -0.06800
C1327       C  0.74732259  0.35927960  0.74661462     0.14100
C1328       C  0.74200599  0.39189202  0.75984774    -0.20300
C1329       C  0.78116653  0.41385835  0.76885262    -0.06800
C1330       C  0.82425412  0.39687053  0.77763254     0.14000
C1331       C  0.83780512  0.38800450  0.82756681    -0.23600
H1332       H  0.86742601  0.35881807  0.75316710     0.15300
H1333       H  0.70644999  0.40076923  0.76143115     0.15400
C1334       C  0.70255971  0.33916880  0.73675584    -0.23600
H1335       H  0.87207426  0.39940444  0.83770294     0.05600
H1336       H  0.84215401  0.36099210  0.83415403     0.08800
H1337       H  0.81031636  0.39359137  0.85266851     0.08800
H1338       H  0.69825930  0.31785634  0.76196660     0.08800
H1339       H  0.70382793  0.33055461  0.70111326     0.08800
H1340       H  0.67020280  0.35375414  0.73956256     0.05600
C1341       C  0.78739823  0.03405882  0.71837972    -0.20200
C1342       C  0.80550999  0.01767491  0.75847332    -0.06800
C1343       C  0.81390083  0.03975916  0.79575186     0.14100
C1344       C  0.82003241  0.07391473  0.78668344    -0.20300
C1345       C  0.80837755  0.08898739  0.74437687    -0.06800
C1346       C  0.78870559  0.06869905  0.71068456     0.14000
C1347       C  0.76605792  0.08314732  0.66779788    -0.23600
H1348       H  0.76534419  0.02052494  0.69543046     0.15300
H1349       H  0.83074744  0.08925824  0.81469576     0.15400
C1350       C  0.81051478  0.03030577  0.84662070    -0.23600
H1351       H  0.74966075  0.06371953  0.64657556     0.05600
H1352       H  0.79319209  0.09702469  0.64606553     0.08800
H1353       H  0.73768251  0.09986041  0.67735490     0.08800
H1354       H  0.84592312  0.03279638  0.86290351     0.08800
H1355       H  0.79439998  0.00560712  0.85417557     0.08800
H1356       H  0.78643361  0.04711972  0.86366330     0.05600
C1357       C  0.98383900  0.23423231  0.85730766    -0.20200
C1358       C  0.93815897  0.22233886  0.86722156    -0.06800
C1359       C  0.92504680  0.21763297  0.91384035     0.14100
C1360       C  0.95855904  0.22359289  0.94853742    -0.20300
C1361       C  0.00733122  0.23297272  0.94025138    -0.06800
C1362       C  0.01583856  0.24333246  0.89205664     0.14000
C1363       C  0.55211136  0.26914348  0.87257060    -0.23600
H1364       H  0.99283242  0.23968304  0.82137979     0.15300
H1365       H  0.94323893  0.22466886  0.98199673     0.15400
C1366       C  0.87429606  0.20983072  0.92769197    -0.23600
H1367       H  0.55122035  0.27329057  0.83455768     0.05600
H1368       H  0.58762423  0.26075373  0.87861415     0.08800
H1369       H  0.54424251  0.29348405  0.88561088     0.08800
H1370       H  0.86217107  0.18555859  0.91497298     0.08800
H1371       H  0.85262092  0.22983171  0.91291772     0.08800
H1372       H  0.86899966  0.20864159  0.96559367     0.05600
C1373       C  0.98145481  0.25057937  0.60806668    -0.20200
C1374       C  0.94568352  0.22561489  0.60912281    -0.06800
C1375       C  0.94743873  0.20238563  0.57459377     0.14100
C1376       C  0.98044234  0.20722865  0.53821128    -0.20300
C1377       C  0.01259627  0.23521058  0.53136029    -0.06800
C1378       C  0.01535077  0.25503319  0.57188190     0.14000
C1379       C  0.05265386  0.28152308  0.58080679    -0.23600
H1380       H  0.98306479  0.26733722  0.63606270     0.15300
H1381       H  0.97339528  0.19073522  0.51207160     0.15400
C1382       C  0.91338870  0.17254570  0.57386144    -0.23600
H1383       H  0.07182951  0.27486338  0.61297962     0.05600
H1384       H  0.03585989  0.30554148  0.58493389     0.08800
H1385       H  0.58475832  0.27747982  0.55447061     0.08800
H1386       H  0.87656134  0.18057911  0.56839784     0.08800
H1387       H  0.91581395  0.15752299  0.60658483     0.08800
H1388       H  0.92135630  0.15600733  0.54566043     0.05600
C1389       C  0.57909115  0.33324089  0.47462105    -0.20200
C1390       C  0.53803745  0.34543436  0.49325423    -0.06800
C1391       C  0.99878102  0.32697420  0.99975194     0.14100
C1392       C  0.00286409  0.29353102  0.99018990    -0.20300
C1393       C  0.54620653  0.27564473  0.47849351    -0.06800
C1394       C  0.58354986  0.29988944  0.46454104     0.14000
C1395       C  0.62508140  0.29640646  0.43235167    -0.23600
H1396       H  0.60821920  0.35071942  0.46570082     0.15300
H1397       H  0.97101246  0.27810806  0.99516036     0.15400
C1398       C  0.95162372  0.33842828  0.01624460    -0.23600
H1399       H  0.65692555  0.31105343  0.44299716     0.05600
H1400       H  0.61601191  0.31398048  0.89814679     0.08800
H1401       H  0.63493213  0.27125334  0.42928893     0.08800
H1402       H  0.93776071  0.35710345  0.99121025     0.08800
H1403       H  0.95376165  0.35370624  0.55396292     0.08800
H1404       H  0.92452497  0.31781566  0.01990336     0.05600
C1405       C  0.67242679  0.22405008  0.94559405    -0.20200
C1406       C  0.62309193  0.21710658  0.94091384    -0.06800
C1407       C  0.61087418  0.20380155  0.89632396     0.14100
C1408       C  0.64283908  0.20863799  0.85904840    -0.20300
C1409       C  0.68976626  0.21837693  0.86573624    -0.06800
C1410       C  0.70502999  0.22560567  0.90958945     0.14000
C1411       C  0.75645933  0.23350359  0.91931699    -0.23600
H1412       H  0.68873129  0.22418868  0.97821241     0.15300
H1413       H  0.63302587  0.20089355  0.82505188     0.15400
C1414       C  0.57151487  0.17866512  0.88620914    -0.23600
H1415       H  0.76238561  0.24059102  0.95532743     0.05600
H1416       H  0.76991947  0.25433176  0.89607940     0.08800
H1417       H  0.77659795  0.21110626  0.91387822     0.08800
H1418       H  0.56958504  0.17305532  0.84922927     0.08800
H1419       H  0.53594795  0.18643763  0.89368474     0.08800
H1420       H  0.57900101  0.15467604  0.90390149     0.05600
C1421       C  0.60700881  0.19967002  0.57517784    -0.20200
C1422       C  0.61993991  0.22022385  0.53506829    -0.06800
C1423       C  0.65974352  0.24362971  0.54357095     0.14100
C1424       C  0.68985724  0.23770744  0.58086860    -0.20300
C1425       C  0.68045770  0.21322926  0.61415498    -0.06800
C1426       C  0.63712675  0.19525402  0.61344735     0.14000
C1427       C  0.62395313  0.17026772  0.65165679    -0.23600
H1428       H  0.57496297  0.18416559  0.57520015     0.15300
H1429       H  0.72203006  0.25293075  0.58499452     0.15400
C1430       C  0.67508163  0.27539228  0.51742607    -0.23600
H1431       H  0.58901423  0.15763161  0.64560636     0.05600
H1432       H  0.62202081  0.18273210  0.68475079     0.08800
H1433       H  0.65122065  0.15122989  0.65425989     0.08800
H1434       H  0.68720986  0.27712913  0.98269694     0.08800
H1435       H  0.70309645  0.29372228  0.03338694     0.08800
H1436       H  0.64807648  0.29385282  0.51947386     0.05600
C1437       C  0.53565247  0.16252997  0.97885254    -0.20200
C1438       C  0.58350166  0.17162156  0.49219420    -0.06800
C1439       C  0.61992888  0.14847314  0.50605837     0.14100
C1440       C  0.60844688  0.11446585  0.51269831    -0.20300
C1441       C  0.56473525  0.10078687  0.50071493    -0.06800
C1442       C  0.52453424  0.12835668  0.98404406     0.14000
C1443       C  0.47650579  0.11493924  0.96977140    -0.23600
H1444       H  0.51048682  0.17671760  0.96046728     0.15300
H1445       H  0.63534548  0.09755551  0.52415120     0.15400
C1446       C  0.67270452  0.15650057  0.51032109    -0.23600
H1447       H  0.95954628  0.13102225  0.94830643     0.05600
H1448       H  0.96194544  0.10305883  0.49306479     0.08800
H1449       H  0.98875100  0.09441633  0.93316065     0.08800
H1450       H  0.69214420  0.13555469  0.52607209     0.08800
H1451       H  0.67849957  0.18161894  0.02945862     0.08800
H1452       H  0.68867150  0.16051218  0.47564894     0.05600
C1453       C  0.59121782  0.71681757  0.98848608    -0.02400
C1454       C  0.54180620  0.74135438  0.98582896    -0.02400
Zn1455     Zn  0.86891534  0.75309732  0.23370131     1.49700
Zn1456     Zn  0.75472584  0.74379173  0.23586696     1.49400
Zn1457     Zn  0.81474170  0.69255223  0.18175673     1.49100
Zn1458     Zn  0.81669683  0.69177700  0.29046098     1.49500
O1459       O  0.81442840  0.72057112  0.23500162    -1.84100
O1460       O  0.84527380  0.80134976  0.23069819    -0.74700
O1461       O  0.71071804  0.73024660  0.18602576    -0.74500
O1462       O  0.87474833  0.70418174  0.14397567    -0.74000
O1463       O  0.76719293  0.79296434  0.23036484    -0.74700
O1464       O  0.91292071  0.74497871  0.17857120    -0.74300
O1465       O  0.75467850  0.69864324  0.14365957    -0.76900
O1466       O  0.81513741  0.64385941  0.27643664    -0.74300
O1467       O  0.71815719  0.73538147  0.29415299    -0.75000
O1468       O  0.81457679  0.64347444  0.20054917    -0.74400
O1469       O  0.76147846  0.69840703  0.33135407    -0.74900
O1470       O  0.87335068  0.70187968  0.32904654    -0.74800
O1471       O  0.90746067  0.74634263  0.29328617    -0.74600
C1472       C  0.80342463  0.81268997  0.23003990     0.77200
C1473       C  0.71613938  0.71313182  0.15109937     0.77700
C1474       C  0.91055333  0.72434184  0.14652831     0.76600
C1475       C  0.81388285  0.62802380  0.23967152     0.77000
C1476       C  0.72584311  0.71659022  0.32908963     0.78200
C1477       C  0.90502361  0.72505221  0.32723552     0.77200
C1478       C  0.82315105  0.48151248  0.25817936    -0.02400
C1479       C  0.77293689  0.95620879  0.25921178    -0.02400
Zn1480     Zn  0.55475173  0.00014183  0.45186753     1.49700
Zn1481     Zn  0.54857767  0.00709636  0.06448935     1.49400
Zn1482     Zn  0.48661287  0.95178255  0.01146030     1.49100
Zn1483     Zn  0.59960915  0.94956832  0.01585705     1.49500
O1484       O  0.54627497  0.97887920  0.01163686    -1.84100
O1485       O  0.55488996  0.54857630  0.46836201    -0.74700
O1486       O  0.49147221  0.99655830  0.10564687    -0.74500
O1487       O  0.94778400  0.96586511  0.45225874    -0.74000
O1488       O  0.55505600  0.55496017  0.04698000    -0.74700
O1489       O  0.49738235  0.99209100  0.41134110    -0.74300
O1490       O  0.95175500  0.95667471  0.06453403    -0.74900
O1491       O  0.57742791  0.90226183  0.01199541    -0.74300
O1492       O  0.60669633  0.99857836  0.10352426    -0.75000
O1493       O  0.49919165  0.90313517  0.00651680    -0.74400
O1494       O  0.63826499  0.95540582  0.07259722    -0.74900
O1495       O  0.64916140  0.95137536  0.46028323    -0.74800
O1496       O  0.61406324  0.98938887  0.41636901    -0.74600
C1497       C  0.55506216  0.57024216  0.00764706     0.77200
C1498       C  0.95779868  0.97617141  0.09730743     0.77700
C1499       C  0.95699530  0.98233300  0.41485503     0.76600
C1500       C  0.53737606  0.88739216  0.00649335     0.77000
C1501       C  0.63760642  0.97645172  0.10362292     0.78200
C1502       C  0.64765807  0.96956747  0.42368376     0.77200
C1503       C  0.72690559  0.93420425  0.33410626    -0.20200
C1504       C  0.74114042  0.96216250  0.30471350    -0.06800
C1505       C  0.71937382  0.99266217  0.31735843     0.14100
C1506       C  0.69680466  0.99455730  0.36025512    -0.20300
C1507       C  0.68427387  0.96661445  0.38751732    -0.06800
C1508       C  0.69976525  0.93589627  0.37442279     0.14000
C1509       C  0.68574432  0.90418033  0.40136363    -0.23600
H1510       H  0.73377579  0.90955274  0.32514351     0.15300
H1511       H  0.68292262  0.01793648  0.36982130     0.15400
C1512       C  0.70742695  0.02233020  0.28666730    -0.23600
H1513       H  0.69954322  0.88205660  0.38546446     0.05600
H1514       H  0.64645888  0.90097727  0.40313724     0.08800
H1515       H  0.70042450  0.90479750  0.43664962     0.08800
H1516       H  0.66851326  0.02588210  0.28820195     0.08800
H1517       H  0.71367765  0.01995577  0.25038500     0.08800
H1518       H  0.72493376  0.04529273  0.29865101     0.05600
C1519       C  0.68932097  0.96686302  0.22267112    -0.20200
C1520       C  0.73888616  0.96222124  0.21539719    -0.06800
C1521       C  0.74985506  0.95519191  0.16822442     0.14100
C1522       C  0.71795063  0.96356994  0.13268790    -0.20300
C1523       C  0.67211866  0.97371385  0.14174281    -0.06800
C1524       C  0.65726352  0.97445516  0.18764490     0.14000
C1525       C  0.60647844  0.98092968  0.20038744    -0.23600
H1526       H  0.67331599  0.96346581  0.25620156     0.15300
H1527       H  0.72759415  0.95934971  0.09735150     0.15400
C1528       C  0.78808250  0.93275316  0.15275750    -0.23600
H1529       H  0.60026060  0.97890427  0.23815295     0.05600
H1530       H  0.58189786  0.96275096  0.18442728     0.08800
H1531       H  0.59772841  0.00636501  0.18851405     0.08800
H1532       H  0.81416936  0.92574588  0.17892596     0.08800
H1533       H  0.80762407  0.94418931  0.12249544     0.08800
H1534       H  0.77086413  0.90941640  0.14142082     0.05600
C1535       C  0.93387113  0.99971402  0.33502072    -0.20200
C1536       C  0.92230629  0.98152524  0.37585414    -0.06800
C1537       C  0.87821238  0.96349048  0.37801993     0.14100
C1538       C  0.84804505  0.96408747  0.33961914    -0.20300
C1539       C  0.85880896  0.98164961  0.29781800    -0.06800
C1540       C  0.90321475  0.00109346  0.29706260     0.14000
C1541       C  0.92036551  0.02520401  0.25848047    -0.23600
H1542       H  0.96709765  0.01413753  0.33284873     0.15300
H1543       H  0.81861191  0.44654930  0.34304584     0.15400
C1544       C  0.86424364  0.43970905  0.42071293    -0.23600
H1545       H  0.95385624  0.01663347  0.24367442     0.05600
H1546       H  0.89529607  0.02934962  0.23017726     0.08800
H1547       H  0.92771438  0.04987301  0.27260762     0.08800
H1548       H  0.85915062  0.45476092  0.45113180     0.08800
H1549       H  0.88636227  0.92362093  0.42878980     0.08800
H1550       H  0.83008195  0.42592615  0.41510609     0.05600
C1551       C  0.84697323  0.48810124  0.16958173    -0.20200
C1552       C  0.85634767  0.97516958  0.21198716    -0.06800
C1553       C  0.89953072  0.95612933  0.21290673     0.14100
C1554       C  0.93056920  0.95699116  0.17467254    -0.20300
C1555       C  0.92240746  0.97565980  0.13472820    -0.06800
C1556       C  0.87805290  0.48920868  0.13163202     0.14000
C1557       C  0.86319989  0.50490146  0.08615611    -0.23600
H1558       H  0.81283932  0.49547677  0.16052060     0.15300
H1559       H  0.96275420  0.94307980  0.17628160     0.15400
C1560       C  0.91857810  0.93449564  0.25154890    -0.23600
H1561       H  0.82728559  0.51513521  0.08798929     0.05600
H1562       H  0.86260425  0.48621680  0.05942914     0.08800
H1563       H  0.88871135  0.52547228  0.07565711     0.08800
H1564       H  0.92252781  0.90906183  0.23978499     0.08800
H1565       H  0.89724660  0.93226853  0.28222684     0.08800
H1566       H  0.95411392  0.94436627  0.26184158     0.05600
C1567       C  0.83271956  0.86941376  0.25065544    -0.20200
C1568       C  0.79604632  0.84920522  0.23322906    -0.06800
C1569       C  0.75083575  0.86310825  0.22823045     0.14100
C1570       C  0.74475385  0.89589345  0.24034616    -0.20300
C1571       C  0.78205649  0.91673964  0.25766554    -0.06800
C1572       C  0.82186404  0.89826184  0.27361356     0.14000
C1573       C  0.83143092  0.89194623  0.32488916    -0.23600
H1574       H  0.86600100  0.85804206  0.25896139     0.15300
H1575       H  0.70962595  0.90517018  0.23610113     0.15400
C1576       C  0.70857371  0.84441878  0.20891951    -0.23600
H1577       H  0.86668262  0.90152634  0.33544955     0.05600
H1578       H  0.83146807  0.86501522  0.33443603     0.08800
H1579       H  0.80384224  0.90046316  0.34765428     0.08800
H1580       H  0.69603521  0.82419878  0.23353425     0.08800
H1581       H  0.71824402  0.83431150  0.17546465     0.08800
H1582       H  0.67804668  0.86051931  0.20264675     0.05600
C1583       C  0.79128812  0.53618273  0.21650551    -0.20200
C1584       C  0.80745210  0.51965813  0.25721257    -0.06800
C1585       C  0.81318911  0.54152727  0.29521142     0.14100
C1586       C  0.81896272  0.57579018  0.28684988    -0.20300
C1587       C  0.81096885  0.59103085  0.24370313    -0.06800
C1588       C  0.79436249  0.57078025  0.20850271     0.14000
C1589       C  0.77757963  0.58512242  0.16294957    -0.23600
H1590       H  0.76966634  0.52282024  0.19291478     0.15300
H1591       H  0.82718333  0.59097731  0.31571813     0.15400
C1592       C  0.80842031  0.53161618  0.34591084    -0.23600
H1593       H  0.76392431  0.56565212  0.14025444     0.05600
H1594       H  0.80753495  0.59854623  0.14443681     0.08800
H1595       H  0.74842419  0.60216217  0.16858306     0.08800
H1596       H  0.84284207  0.53564338  0.36355889     0.08800
H1597       H  0.79477237  0.50622808  0.35296173     0.08800
H1598       H  0.78195751  0.54717275  0.36204771     0.05600
C1599       C  0.98511482  0.73869761  0.35680886    -0.20200
C1600       C  0.93894820  0.72776870  0.36616706    -0.06800
C1601       C  0.92444583  0.72481296  0.41244273     0.14100
C1602       C  0.95694407  0.73135354  0.44758518    -0.20300
C1603       C  0.00623659  0.73905064  0.44033252    -0.06800
C1604       C  0.01649623  0.74806292  0.39197685     0.14000
C1605       C  0.55448029  0.76281636  0.37583612    -0.23600
H1606       H  0.99506418  0.74310990  0.32090542     0.15300
H1607       H  0.94072496  0.73395692  0.48041135     0.15400
C1608       C  0.87336711  0.71803807  0.42515084    -0.23600
H1609       H  0.55359764  0.76705240  0.33784318     0.05600
H1610       H  0.58993338  0.75449974  0.38180175     0.08800
H1611       H  0.54678772  0.78716255  0.38898154     0.08800
H1612       H  0.86160603  0.69321600  0.41412067     0.08800
H1613       H  0.85259651  0.73756579  0.40784525     0.08800
H1614       H  0.86672251  0.71853227  0.46276994     0.05600
C1615       C  0.98551381  0.74911936  0.10925213    -0.20200
C1616       C  0.95002928  0.72395408  0.11124979    -0.06800
C1617       C  0.95432973  0.69853155  0.08017055     0.14100
C1618       C  0.98813289  0.70205865  0.04429760    -0.20300
C1619       C  0.01873012  0.73054281  0.03532456    -0.06800
C1620       C  0.02101227  0.75160284  0.07449757     0.14000
C1621       C  0.05994364  0.77690375  0.08345181    -0.23600
H1622       H  0.98605588  0.76722089  0.13556350     0.15300
H1623       H  0.98291647  0.68399311  0.01999452     0.15400
C1624       C  0.92262288  0.66748095  0.08299210    -0.23600
H1625       H  0.07710698  0.77045935  0.11678973     0.05600
H1626       H  0.04524108  0.80181281  0.08530250     0.08800
H1627       H  0.58274536  0.78144036  0.05766735     0.08800
H1628       H  0.88547182  0.67352204  0.07475009     0.08800
H1629       H  0.92456283  0.65539353  0.11792805     0.08800
H1630       H  0.93338748  0.64906368  0.05822158     0.05600
C1631       C  0.57733556  0.83943480  0.97737708    -0.20200
C1632       C  0.53674574  0.85151302  0.99700211    -0.06800
C1633       C  0.99479120  0.83231339  0.50378366     0.14100
C1634       C  0.99928702  0.79897466  0.49381412    -0.20300
C1635       C  0.54495026  0.78151411  0.98209345    -0.06800
C1636       C  0.58183217  0.80601113  0.96743434     0.14000
C1637       C  0.62390137  0.80242789  0.93604734    -0.23600
H1638       H  0.60606336  0.85707079  0.96775377     0.15300
H1639       H  0.96791425  0.78334556  0.49992580     0.15400
C1640       C  0.94835999  0.84321731  0.52283167    -0.23600
H1641       H  0.65561655  0.81686280  0.94746023     0.05600
H1642       H  0.62079944  0.80665032  0.39982828     0.08800
H1643       H  0.63330285  0.77718238  0.93325211     0.08800
H1644       H  0.93263878  0.86164448  0.49861639     0.08800
H1645       H  0.96354971  0.84905086  0.05744953     0.08800
H1646       H  0.92198585  0.82227216  0.52803279     0.05600
C1647       C  0.67666438  0.71683416  0.44907058    -0.20200
C1648       C  0.62737027  0.71049291  0.44424817    -0.06800
C1649       C  0.61495677  0.69829027  0.39922089     0.14100
C1650       C  0.64605466  0.70508692  0.36156763    -0.20300
C1651       C  0.69273546  0.71569911  0.36808056    -0.06800
C1652       C  0.70859109  0.72048988  0.41259972     0.14000
C1653       C  0.75976669  0.72850839  0.42238461    -0.23600
H1654       H  0.69306071  0.71612283  0.48176233     0.15300
H1655       H  0.63580429  0.69841266  0.32721631     0.15400
C1656       C  0.57646646  0.67264651  0.38886614    -0.23600
H1657       H  0.76617521  0.73345005  0.45912722     0.05600
H1658       H  0.77193655  0.75081509  0.40133875     0.08800
H1659       H  0.78036713  0.70690576  0.41396450     0.08800
H1660       H  0.57474669  0.66736097  0.35177107     0.08800
H1661       H  0.54063307  0.67978821  0.39684631     0.08800
H1662       H  0.58487359  0.64871211  0.40622971     0.05600
C1663       C  0.60606560  0.70366967  0.07625595    -0.20200
C1664       C  0.61868150  0.72484290  0.03663623    -0.06800
C1665       C  0.65860080  0.74794952  0.04572203     0.14100
C1666       C  0.68952109  0.74095144  0.08207890    -0.20300
C1667       C  0.68055355  0.71576478  0.11449502    -0.06800
C1668       C  0.63693406  0.69808278  0.11371611     0.14000
C1669       C  0.62415632  0.67220038  0.15088455    -0.23600
H1670       H  0.57352740  0.68863833  0.07633643     0.15300
H1671       H  0.72188720  0.75596385  0.08621803     0.15400
C1672       C  0.67329112  0.78035994  0.02097839    -0.23600
H1673       H  0.58896080  0.65992983  0.14481188     0.05600
H1674       H  0.62300653  0.68374656  0.18470177     0.08800
H1675       H  0.65120733  0.65298409  0.15194042     0.08800
H1676       H  0.69215611  0.76973339  0.48456017     0.08800
H1677       H  0.70884345  0.78656759  0.53471045     0.08800
H1678       H  0.64563948  0.79833109  0.02315785     0.05600
C1679       C  0.54095269  0.65539692  0.48145719    -0.20200
C1680       C  0.58141740  0.67713540  0.99315247    -0.06800
C1681       C  0.61772035  0.65380071  0.00640380     0.14100
C1682       C  0.60556986  0.62008556  0.01499343    -0.20300
C1683       C  0.56111686  0.60668521  0.00492592    -0.06800
C1684       C  0.53047723  0.62114291  0.48570457     0.14000
C1685       C  0.48274492  0.60755385  0.47078718    -0.23600
H1686       H  0.51496056  0.66959121  0.46432708     0.15300
H1687       H  0.63242815  0.60310199  0.02630800     0.15400
C1688       C  0.67073706  0.66146281  0.00823062    -0.23600
H1689       H  0.95697279  0.63695575  0.45379301     0.05600
H1690       H  0.96490406  0.59768317  0.99467411     0.08800
H1691       H  0.98591048  0.60024532  0.43848138     0.08800
H1692       H  0.69066758  0.64028886  0.02259118     0.08800
H1693       H  0.68224134  0.67526208  0.53577960     0.08800
H1694       H  0.68492126  0.66572331  0.97288428     0.05600
C1695       C  0.59429578  0.71037203  0.48897670    -0.02400
C1696       C  0.54506160  0.73500958  0.48583329    -0.02400
Zn1697     Zn  0.86773576  0.75144792  0.73815281     1.49700
Zn1698     Zn  0.75420278  0.74216994  0.73653712     1.49400
Zn1699     Zn  0.81470222  0.69087642  0.68519988     1.49100
Zn1700     Zn  0.81401327  0.69025722  0.79390401     1.49500
O1701       O  0.81361836  0.71885123  0.73818096    -1.84100
O1702       O  0.84319240  0.79955676  0.73875519    -0.74700
O1703       O  0.70988364  0.72777606  0.68789610    -0.74500
O1704       O  0.87355214  0.70376863  0.64705485    -0.74000
O1705       O  0.76585288  0.79098203  0.73024194    -0.74700
O1706       O  0.91066738  0.74514511  0.68132024    -0.74300
O1707       O  0.75495032  0.69604860  0.64701857    -0.76900
O1708       O  0.81056277  0.64227361  0.77952906    -0.74300
O1709       O  0.71764574  0.73573098  0.79413649    -0.75000
O1710       O  0.81552018  0.64193209  0.70366719    -0.74400
O1711       O  0.75899058  0.69903887  0.83426097    -0.74900
O1712       O  0.87143098  0.69882371  0.83262602    -0.74800
O1713       O  0.90699846  0.74276329  0.79700663    -0.74600
C1714       C  0.80132458  0.81073016  0.73516646     0.77200
C1715       C  0.71605701  0.71023657  0.65362840     0.77700
C1716       C  0.90834580  0.72479452  0.64886547     0.76600
C1717       C  0.81200126  0.62650674  0.74271792     0.77000
C1718       C  0.72427374  0.71799424  0.83021328     0.78200
C1719       C  0.90423992  0.72124434  0.83071905     0.77200
C1720       C  0.82092994  0.47984244  0.76074527    -0.02400
C1721       C  0.77058996  0.95304979  0.76407453    -0.02400
Zn1722     Zn  0.55154984  0.00619373  0.95466416     1.49700
Zn1723     Zn  0.55366225  0.00021708  0.56127223     1.49400
Zn1724     Zn  0.49066050  0.94530213  0.50918946     1.49100
Zn1725     Zn  0.60403340  0.94286013  0.51275142     1.49500
O1726       O  0.55050957  0.97226138  0.50862149    -1.84100
O1727       O  0.55373866  0.55484976  0.97041087    -0.74700
O1728       O  0.49415021  0.99261725  0.59887878    -0.74500
O1729       O  0.95158900  0.95899855  0.95153209    -0.74000
O1730       O  0.55945192  0.54807322  0.54472610    -0.74700
O1731       O  0.49495872  0.99714273  0.91459638    -0.74300
O1732       O  0.94620182  0.96157403  0.56511608    -0.74900
O1733       O  0.58134712  0.89597965  0.50724827    -0.74300
O1734       O  0.60871299  0.98885986  0.60290973    -0.75000
O1735       O  0.50294523  0.89662014  0.50418872    -0.74400
O1736       O  0.64135844  0.94651568  0.57115898    -0.74900
O1737       O  0.64398523  0.95705539  0.96281493    -0.74800
O1738       O  0.61044986  0.99518352  0.91829342    -0.74600
C1739       C  0.55832916  0.56366265  0.50573991     0.77200
C1740       C  0.95153685  0.98058515  0.59849421     0.77700
C1741       C  0.95894666  0.97650439  0.91458388     0.76600
C1742       C  0.54120781  0.88100590  0.50291307     0.77000
C1743       C  0.63921419  0.96646005  0.60350828     0.78200
C1744       C  0.64324275  0.97476679  0.92579093     0.77200
C1745       C  0.72790331  0.93617153  0.84314931    -0.20200
C1746       C  0.73840235  0.96169240  0.80854989    -0.06800
C1747       C  0.71381753  0.99218155  0.81620617     0.14100
C1748       C  0.68947315  0.99633438  0.85777194    -0.20300
C1749       C  0.67972662  0.97038737  0.88959898    -0.06800
C1750       C  0.69957746  0.93975977  0.88224959     0.14000
C1751       C  0.68968774  0.90980922  0.91434232    -0.23600
H1752       H  0.74027604  0.91185803  0.84020992     0.15300
H1753       H  0.67314298  0.01968987  0.86320163     0.15400
C1754       C  0.70231113  0.01975308  0.78173493    -0.23600
H1755       H  0.70670957  0.88741223  0.90255176     0.05600
H1756       H  0.65087896  0.90404760  0.91648115     0.08800
H1757       H  0.70387112  0.91452524  0.94904462     0.08800
H1758       H  0.66326596  0.02285545  0.78115504     0.08800
H1759       H  0.71040307  0.01520756  0.74636762     0.08800
H1760       H  0.71894936  0.04360608  0.79165297     0.05600
C1761       C  0.68751509  0.96035539  0.72487746    -0.20200
C1762       C  0.73711474  0.95549286  0.71916582    -0.06800
C1763       C  0.74820778  0.94436525  0.67382773     0.14100
C1764       C  0.71684922  0.95019109  0.63683219    -0.20300
C1765       C  0.67184932  0.96269791  0.64325998    -0.06800
C1766       C  0.65637352  0.96656654  0.68850508     0.14000
C1767       C  0.60605119  0.97534872  0.69948387    -0.23600
H1768       H  0.67104567  0.95880328  0.75829546     0.15300
H1769       H  0.72697749  0.94340263  0.60261925     0.15400
C1770       C  0.78812971  0.92221433  0.66202000    -0.23600
H1771       H  0.59919815  0.97530810  0.73710744     0.05600
H1772       H  0.58051033  0.95721863  0.68474201     0.08800
H1773       H  0.59931102  0.00060149  0.68530846     0.08800
H1774       H  0.81484874  0.91892728  0.68877946     0.08800
H1775       H  0.80707145  0.93203566  0.63043987     0.08800
H1776       H  0.77286964  0.89736246  0.65463411     0.05600
C1777       C  0.93268879  0.99616440  0.83665559    -0.20200
C1778       C  0.92270244  0.97674007  0.87684197    -0.06800
C1779       C  0.87842760  0.95900441  0.87977522     0.14100
C1780       C  0.84729032  0.96011456  0.84206238    -0.20300
C1781       C  0.85682257  0.97853499  0.80068141    -0.06800
C1782       C  0.90077801  0.99844649  0.79976137     0.14000
C1783       C  0.91672373  0.02329801  0.76158970    -0.23600
H1784       H  0.96582338  0.01066855  0.83405292     0.15300
H1785       H  0.81557554  0.44733216  0.84727413     0.15400
C1786       C  0.86361211  0.43943251  0.92358833    -0.23600
H1787       H  0.95075264  0.01576535  0.74664817     0.05600
H1788       H  0.89164296  0.02681844  0.73309686     0.08800
H1789       H  0.92277177  0.04793249  0.77620359     0.08800
H1790       H  0.86196001  0.45527684  0.95362222     0.08800
H1791       H  0.88705217  0.91847296  0.92939677     0.08800
H1792       H  0.82772544  0.42759848  0.91981219     0.05600
C1793       C  0.84167235  0.48584413  0.67192129    -0.20200
C1794       C  0.85256846  0.97239781  0.71466621    -0.06800
C1795       C  0.89839914  0.95660449  0.71478620     0.14100
C1796       C  0.92928350  0.96069184  0.67662306    -0.20300
C1797       C  0.91697719  0.97781700  0.63650291    -0.06800
C1798       C  0.87262780  0.48900559  0.63405128     0.14000
C1799       C  0.85627346  0.50460424  0.58905942    -0.23600
H1800       H  0.80647901  0.49115848  0.66333236     0.15300
H1801       H  0.96397078  0.94989412  0.67796955     0.15400
C1802       C  0.91953099  0.93469369  0.75197558    -0.23600
H1803       H  0.81931472  0.51299262  0.59129046     0.05600
H1804       H  0.85759659  0.48646255  0.56169719     0.08800
H1805       H  0.87973515  0.52646089  0.57921720     0.08800
H1806       H  0.92593832  0.91008473  0.73837288     0.08800
H1807       H  0.89803241  0.93036116  0.78234958     0.08800
H1808       H  0.95407282  0.94572920  0.76310515     0.05600
C1809       C  0.83090278  0.86857660  0.75092105    -0.20200
C1810       C  0.79252209  0.84683087  0.74101331    -0.06800
C1811       C  0.74600692  0.85901169  0.74555213     0.14100
C1812       C  0.74064082  0.89182653  0.75792897    -0.20300
C1813       C  0.77982571  0.91367883  0.76740172    -0.06800
C1814       C  0.82273405  0.89664167  0.77655987     0.14000
C1815       C  0.83606445  0.88777925  0.82651493    -0.23600
H1816       H  0.86614337  0.85878617  0.75220261     0.15300
H1817       H  0.70512076  0.90088521  0.75880399     0.15400
C1818       C  0.70130603  0.83855747  0.73667926    -0.23600
H1819       H  0.87067220  0.89883281  0.83637837     0.05600
H1820       H  0.83975402  0.86071182  0.83323755     0.08800
H1821       H  0.80879424  0.89377507  0.85160567     0.08800
H1822       H  0.69759215  0.81749990  0.76237754     0.08800
H1823       H  0.70216798  0.82952233  0.70125330     0.08800
H1824       H  0.66884575  0.85301712  0.73962861     0.05600
C1825       C  0.78974352  0.53486930  0.71910235    -0.20200
C1826       C  0.80594133  0.51816541  0.75976930    -0.06800
C1827       C  0.81275882  0.54003036  0.79764055     0.14100
C1828       C  0.81875358  0.57426962  0.78924272    -0.20300
C1829       C  0.80944299  0.58958615  0.74650477    -0.06800
C1830       C  0.79205842  0.56949657  0.71152171     0.14000
C1831       C  0.77318415  0.58411492  0.66692763    -0.23600
H1832       H  0.76825869  0.52172703  0.69531998     0.15300
H1833       H  0.82793522  0.58944792  0.81788519     0.15400
C1834       C  0.80865558  0.53020649  0.84837076    -0.23600
H1835       H  0.75852420  0.56480080  0.64449676     0.05600
H1836       H  0.80218530  0.59778402  0.64734291     0.08800
H1837       H  0.74426107  0.60101813  0.67412400     0.08800
H1838       H  0.84364161  0.53331967  0.86531783     0.08800
H1839       H  0.79359169  0.50518653  0.85553239     0.08800
H1840       H  0.78347037  0.54641768  0.86509903     0.05600
C1841       C  0.98477677  0.73539840  0.85887021    -0.20200
C1842       C  0.93944778  0.72284901  0.86896539    -0.06800
C1843       C  0.92705480  0.71719035  0.91561713     0.14100
C1844       C  0.96048325  0.72385685  0.95009228    -0.20300
C1845       C  0.00914929  0.73339650  0.94169253    -0.06800
C1846       C  0.01732501  0.74396456  0.89347684     0.14000
C1847       C  0.55353724  0.76924078  0.87558709    -0.23600
H1848       H  0.99320010  0.74140673  0.82295193     0.15300
H1849       H  0.94505421  0.72530748  0.98343709     0.15400
C1850       C  0.87700191  0.70744082  0.92991817    -0.23600
H1851       H  0.55293137  0.77355326  0.83759275     0.05600
H1852       H  0.58903574  0.76090565  0.88179032     0.08800
H1853       H  0.54550460  0.79351203  0.88875489     0.08800
H1854       H  0.86636086  0.68311254  0.91640317     0.08800
H1855       H  0.85385891  0.72692129  0.91625012     0.08800
H1856       H  0.87233789  0.70529723  0.96788445     0.05600
C1857       C  0.98187399  0.75101756  0.61075202    -0.20200
C1858       C  0.94643479  0.72586213  0.61201103    -0.06800
C1859       C  0.94874521  0.70228847  0.57799909     0.14100
C1860       C  0.98125048  0.70735096  0.54124493    -0.20300
C1861       C  0.01330922  0.73536692  0.53433997    -0.06800
C1862       C  0.01604577  0.75520581  0.57483893     0.14000
C1863       C  0.05361595  0.78142810  0.58398037    -0.23600
H1864       H  0.98320337  0.76798281  0.63850946     0.15300
H1865       H  0.97391683  0.69094302  0.51507175     0.15400
C1866       C  0.91599288  0.67173539  0.57837625    -0.23600
H1867       H  0.07227601  0.77475868  0.61644411     0.05600
H1868       H  0.03722964  0.80564788  0.58759385     0.08800
H1869       H  0.58756091  0.77650698  0.55605366     0.08800
H1870       H  0.87878250  0.67881885  0.57259493     0.08800
H1871       H  0.91903936  0.65743282  0.61163504     0.08800
H1872       H  0.92486148  0.65484216  0.55086939     0.05600
C1873       C  0.58158351  0.83266249  0.47545605    -0.20200
C1874       C  0.54053225  0.84508654  0.49381026    -0.06800
C1875       C  0.00200882  0.82707569  0.00330355     0.14100
C1876       C  0.00557499  0.79374586  0.99303308    -0.20300
C1877       C  0.54856617  0.77502830  0.48035252    -0.06800
C1878       C  0.58604925  0.79914223  0.46616953     0.14000
C1879       C  0.62777867  0.79524615  0.43439597    -0.23600
H1880       H  0.61067046  0.85007640  0.46610580     0.15300
H1881       H  0.97375908  0.77836060  0.99863670     0.15400
C1882       C  0.95630477  0.83808974  0.02378261    -0.23600
H1883       H  0.65971035  0.80971028  0.44523983     0.05600
H1884       H  0.61743985  0.81407225  0.90152194     0.08800
H1885       H  0.63714800  0.76996997  0.43155723     0.08800
H1886       H  0.93976433  0.85645992  0.00008167     0.08800
H1887       H  0.95435869  0.85417987  0.55669484     0.08800
H1888       H  0.93005305  0.81717818  0.02996026     0.05600
C1889       C  0.67350011  0.72470889  0.94824362    -0.20200
C1890       C  0.62431320  0.71719607  0.94362604    -0.06800
C1891       C  0.61222135  0.70389845  0.89900814     0.14100
C1892       C  0.64407546  0.70903169  0.86172410    -0.20300
C1893       C  0.69074460  0.71944077  0.86830061    -0.06800
C1894       C  0.70590634  0.72696011  0.91207492     0.14000
C1895       C  0.75712368  0.73570112  0.92155338    -0.23600
H1896       H  0.68986546  0.72489674  0.98083758     0.15300
H1897       H  0.63444334  0.70110083  0.82777064     0.15400
C1898       C  0.57301878  0.67865552  0.88879147    -0.23600
H1899       H  0.76293219  0.74294045  0.95751494     0.05600
H1900       H  0.76989808  0.75664546  0.89816741     0.08800
H1901       H  0.77779470  0.71357914  0.91609988     0.08800
H1902       H  0.57102853  0.67320941  0.85175823     0.08800
H1903       H  0.53739713  0.68626267  0.89645271     0.08800
H1904       H  0.58072805  0.65462524  0.90625089     0.05600
C1905       C  0.60770759  0.69928690  0.57728075    -0.20200
C1906       C  0.62159250  0.71914389  0.53678359    -0.06800
C1907       C  0.66223023  0.74184679  0.54492338     0.14100
C1908       C  0.69235556  0.73542483  0.58200322    -0.20300
C1909       C  0.68126548  0.71210342  0.61644158    -0.06800
C1910       C  0.63688572  0.69542169  0.61632924     0.14000
C1911       C  0.62148348  0.67239364  0.65610113    -0.23600
H1912       H  0.57534386  0.68412873  0.57735557     0.15300
H1913       H  0.72545520  0.74976518  0.58541099     0.15400
C1914       C  0.67808532  0.77350575  0.51886126    -0.23600
H1915       H  0.58584485  0.66067397  0.65039100     0.05600
H1916       H  0.61989675  0.68633429  0.68799218     0.08800
H1917       H  0.64729552  0.65253312  0.66083205     0.08800
H1918       H  0.68813141  0.77739581  0.98672260     0.08800
H1919       H  0.70320458  0.79374075  0.03771891     0.08800
H1920       H  0.65122595  0.79209163  0.52086150     0.05600
C1921       C  0.53743653  0.66184812  0.98144976    -0.20200
C1922       C  0.58456452  0.67070493  0.49435502    -0.06800
C1923       C  0.62051285  0.64736253  0.50882551     0.14100
C1924       C  0.60842261  0.61347654  0.51589332    -0.20300
C1925       C  0.56462378  0.60007209  0.50365883    -0.06800
C1926       C  0.52671714  0.62763463  0.98701738     0.14000
C1927       C  0.47868866  0.61392387  0.97319813    -0.23600
H1928       H  0.51195088  0.67588341  0.96322376     0.15300
H1929       H  0.63494318  0.59640906  0.52777819     0.15400
C1930       C  0.67336303  0.65499524  0.51330326    -0.23600
H1931       H  0.96084753  0.63109831  0.95221230     0.05600
H1932       H  0.96145261  0.60323611  0.49572321     0.08800
H1933       H  0.98938440  0.59410692  0.93754965     0.08800
H1934       H  0.69244239  0.63389270  0.52909722     0.08800
H1935       H  0.68063386  0.68166537  0.03054237     0.08800
H1936       H  0.68951971  0.65891396  0.47870419     0.05600
loop_ 
_geom_bond_atom_site_label_1 
_geom_bond_atom_site_label_2 
_geom_bond_distance 
_geom_bond_site_symmetry_2 
_ccdc_geom_bond_type 
C1            C2   1.741       .  S
C1          C212   1.645   1_556  S
C1          C228   1.620       .  S
C1          C438   1.596       .  S
C2          C183   1.621       .  S
C2         C1361   1.636       .  S
C2         C1135   1.654   1_556  S
Zn3           O7   1.982       .  S
Zn3           O8   2.108       .  S
Zn3          O12   2.083       .  S
Zn3          O19   2.070       .  S
Zn4           O7   1.951       .  S
Zn4           O9   1.997       .  S
Zn4          O11   1.998       .  S
Zn4          O15   1.970       .  S
Zn5           O7   1.960       .  S
Zn5          O10   2.025       .  S
Zn5          O13   2.047       .  S
Zn5          O16   2.043       .  S
Zn6           O7   1.951       .  S
Zn6          O14   2.009       .  S
Zn6          O17   1.993       .  S
Zn6          O18   2.002       .  S
O8           C20   1.285       .  A
O9           C21   1.268       .  A
O10          C22   1.277       .  A
O11          C20   1.270       .  A
O12          C22   1.284       .  A
O13          C21   1.277       .  A
O14          C23   1.274       .  A
O15          C24   1.265       .  A
O16          C23   1.274       .  A
O17          C24   1.270       .  A
O18          C25   1.269       .  A
O19          C25   1.283       .  A
C20         C116   1.516       .  S
C21         C215   1.473       .  S
C22         C164   1.512       .  S
C23         C135   1.494       .  S
C24         C199   1.459       .  S
C25         C148   1.494       .  S
C26         C511   1.730       .  S
C26         C132   1.626   1_565  S
C26         C571   1.588       .  S
C26         C584   1.630       .  S
C27         C510   1.727       .  S
C27          C52   1.634       .  S
C27          C68   1.622       .  S
C27         C119   1.628       .  S
Zn28        O274   1.959       .  S
Zn28         O37   2.039   1_455  S
Zn28         O44   2.039       .  S
Zn28        O517   2.050       .  S
Zn29         O32   1.960       .  S
Zn29         O34   2.016   1_455  S
Zn29         O40   2.040       .  S
Zn29        O520   2.034       .  S
Zn30         O32   1.973   1_655  S
Zn30         O41   2.031   1_655  S
Zn30       O1245   2.013   1_554  S
Zn30       O1006   2.025       .  S
Zn31         O32   1.964       .  S
Zn31         O39   1.995       .  S
Zn31         O42   2.024       .  S
Zn31        O285   2.012   1_554  S
O32        Zn270   1.962   1_554  S
O33        Zn512   2.049       .  S
O33         C287   1.278       .  A
O34        C1014   1.273       .  A
O35       Zn1240   2.025       .  S
O35          C47   1.273       .  A
O36        Zn513   2.026       .  S
O36          C45   1.275       .  A
O37        C1015   1.277       .  A
O38        Zn998   2.019       .  S
O38          C46   1.274       .  A
O39          C48   1.273       .  A
O40          C49   1.276       .  A
O41          C48   1.273       .  A
O42          C49   1.274       .  A
O43        Zn273   1.999       .  S
O43          C50   1.269       .  A
O44          C50   1.279       .  A
C45         O275   1.276   1_554  A
C45         C231   1.478   1_554  S
C46        O1002   1.275       .  A
C46         C103   1.473       .  S
C47        O1005   1.275       .  A
C47          C84   1.501       .  S
C48         C180   1.493   1_554  S
C49          C71   1.493       .  S
C50          C55   1.491       .  S
C51          C52   1.431       .  A
C51          C56   1.406       .  A
C51          H58   1.066       .  S
C52          C53   1.465       .  A
C53          C60   1.514       .  S
C53          C54   1.406       .  A
C54          C55   1.387       .  A
C54          H59   1.087       .  S
C55          C56   1.408       .  A
C56          C57   1.512       .  S
C57          H61   1.111       .  S
C57          H62   1.110       .  S
C57          H63   1.110       .  S
C60          H64   1.113       .  S
C60          H65   1.080       .  S
C60          H66   1.109       .  S
C67          C68   1.432       .  A
C67          C72   1.402       .  A
C67          H74   1.074       .  S
C68          C69   1.449       .  A
C69          C76   1.514       .  S
C69          C70   1.416       .  A
C70          C71   1.400       .  A
C70          H75   1.085       .  S
C71          C72   1.404       .  A
C72          C73   1.512       .  S
C73          H77   1.111       .  S
C73          H78   1.110       .  S
C73          H79   1.110       .  S
C76          H80   1.094       .  S
C76          H81   1.110       .  S
C76          H82   1.110       .  S
C83          C84   1.400       .  A
C83          C88   1.404       .  A
C83          H90   1.084       .  S
C84          C85   1.415       .  A
C85         C576   1.510       .  S
C85          C86   1.409       .  A
C86          C87   1.408       .  A
C86         H575   1.053       .  S
C87         C510   1.586       .  S
C87          C88   1.452       .  A
C88          C89   1.520       .  S
C89          H93   1.111       .  S
C89          H94   1.100       .  S
C89          H95   1.111       .  S
H91         C570   1.055       .  S
C92         C569   1.510       .  S
C92          H96   1.110       .  S
C92          H98   1.110       .  S
C92         H581   1.110       .  S
H97         C576   1.110       .  S
C99         C104   1.402       .  A
C99         C584   1.428       .  A
C99         H106   1.049       .  S
C100        C510   1.631       .  S
C100        C101   1.466       .  A
C100        C583   1.427       .  A
C101        C108   1.508       .  S
C101        C102   1.409       .  A
C102        C103   1.383       .  A
C102        H107   1.087       .  S
C103        C588   1.392       .  A
C104        C105   1.511   1_565  S
C104        C587   1.390       .  A
C105        H109   1.111       .  S
C105        H110   1.110   1_545  S
C105        H111   1.110       .  S
C108        H112   1.111       .  S
C108        H113   1.072       .  S
C108        H114   1.111       .  S
C115        C116   1.409       .  A
C115        C120   1.417       .  A
C115        H122   1.084       .  S
C116        C117   1.428       .  A
C117        C124   1.511       .  S
C117        C118   1.410       .  A
C118        C119   1.424       .  A
C118        H123   1.080       .  S
C119        C120   1.438       .  A
C120        C121   1.534       .  S
C121        H125   1.102       .  S
C121        H126   1.115       .  S
C121        H127   1.100       .  S
C124        H128   1.110       .  S
C124        H129   1.110       .  S
C124        H130   1.111       .  S
C131        C132   1.423       .  A
C131        C136   1.412       .  A
C131        H138   1.072       .  S
C132        C133   1.455       .  A
C133        C140   1.514       .  S
C133        C134   1.400       .  A
C134        C135   1.394       .  A
C134        H139   1.085       .  S
C135        C136   1.410       .  A
C136        C137   1.508       .  S
C137        H141   1.111       .  S
C137        H142   1.109       .  S
C137        H143   1.111       .  S
C140        H144   1.110       .  S
C140        H145   1.094       .  S
C140        H146   1.112       .  S
C147        C148   1.379       .  A
C147        C152   1.408       .  A
C147        H154   1.085       .  S
C148        C149   1.406       .  A
C149        C156   1.501       .  S
C149        C150   1.408       .  A
C150        C151   1.429       .  A
C150        H155   1.066       .  S
C151       C1212   1.634       .  S
C151        C152   1.461       .  A
C152       C1121   1.494       .  S
C153       C1120   1.492       .  S
C153        H157   1.112       .  S
C153        H158   1.082       .  S
C153        H159   1.104       .  S
C156        H160   1.109       .  S
C156        H161   1.106       .  S
C156        H162   1.111       .  S
C163        C164   1.399       .  A
C163        C168   1.419       .  A
C163        H170   1.085       .  S
C164        C165   1.411       .  A
C165        C172   1.515       .  S
C165        C166   1.405       .  A
C166        C167   1.427       .  A
C166        H171   1.050       .  S
C167        C970   1.659   1_554  S
C167        C168   1.459       .  A
C168        C169   1.505       .  S
C169        H173   1.111       .  S
C169        H174   1.110       .  S
C169       H1143   1.082       .  S
C172        H176   1.110       .  S
C172        H177   1.110       .  S
C172        H178   1.111       .  S
H175       C1137   1.082       .  S
C179        C180   1.394       .  A
C179        C184   1.407       .  A
C179        H186   1.086       .  S
C180       C1391   1.404   1_455  A
C181        C188   1.509       .  S
C181        C182   1.404       .  A
C181       C1390   1.404       .  A
C182       C1393   1.438       .  A
C182        H187   1.079       .  S
C183        C184   1.454       .  A
C183       C1392   1.438       .  A
C184        C185   1.510       .  S
C185        H189   1.110       .  S
C185        H191   1.074       .  S
C185        H432   1.109       .  S
C188        H192   1.110       .  S
C188        H194   1.111       .  S
C188        H435   1.111       .  S
H190        C427   1.109       .  S
H193        C430   1.111       .  S
C195        C196   1.418       .  A
C195        C200   1.390       .  A
C195        H202   1.059       .  S
C196        C243   1.602       .  S
C196        C197   1.465       .  A
C197        C204   1.516       .  S
C197        C198   1.406       .  A
C198        C199   1.380       .  A
C198        H203   1.086       .  S
C199        C200   1.390       .  A
C200        C201   1.501       .  S
C201        H205   1.111       .  S
C201        H206   1.111       .  S
C201        H207   1.104       .  S
C204        H208   1.111       .  S
C204        H209   1.087       .  S
C204        H210   1.107       .  S
C211        C212   1.440       .  A
C211        C216   1.416       .  A
C211        H218   1.080       .  S
C212        C213   1.469       .  A
C213        C220   1.511       .  S
C213        C214   1.400       .  A
C214        C215   1.373       .  A
C214        H219   1.087       .  S
C215        C216   1.401       .  A
C216        C217   1.504       .  S
C217        H221   1.111       .  S
C217        H222   1.110       .  S
C217        H223   1.111       .  S
C220        H226   1.092       .  S
C220        H466   1.091   1_554  S
C220        H467   1.111       .  S
H224        C462   1.092       .  S
H225        C462   1.111       .  S
C227        C232   1.409       .  A
C227        C470   1.414       .  A
C227        H234   1.060       .  S
C228        C229   1.462   1_556  A
C228        C469   1.417       .  A
C229        C236   1.516       .  S
C229        C230   1.406       .  A
C230        C231   1.383   1_554  A
C230        H235   1.085       .  S
C231        C474   1.400       .  A
C232        C233   1.507   1_455  S
C232        C473   1.399       .  A
C233       H1205   1.111       .  S
C233       H1448   1.110       .  S
C233       H1207   1.110       .  S
C236        H240   1.111       .  S
C236        H242   1.105   1_554  S
C236        H483   1.096       .  S
H237       C1201   1.111       .  S
H238       C1443   1.110       .  S
H239       C1201   1.110       .  S
H241        C478   1.097       .  S
C243        C244   1.743       .  S
C243        C454   1.644       .  S
C243        C470   1.622       .  S
C244       C1119   1.634       .  S
C244       C1377   1.662       .  S
C244        C425   1.624       .  S
Zn245       O249   1.974       .  S
Zn245       O250   2.066       .  S
Zn245       O254   2.057       .  S
Zn245       O261   2.050       .  S
Zn246       O249   1.960       .  S
Zn246       O251   2.000       .  S
Zn246       O253   1.999       .  S
Zn246       O257   1.988       .  S
Zn247       O249   1.970       .  S
Zn247       O252   2.038       .  S
Zn247       O255   2.041       .  S
Zn247       O258   2.035       .  S
Zn248       O249   1.940       .  S
Zn248       O256   1.981       .  S
Zn248       O259   1.976       .  S
Zn248       O260   2.013       .  S
O250        C262   1.279       .  A
O251        C263   1.269       .  A
O252        C264   1.278       .  A
O253        C262   1.272       .  A
O254        C264   1.280       .  A
O255        C263   1.276       .  A
O256        C265   1.272       .  A
O257        C266   1.266       .  A
O258        C265   1.272       .  A
O259        C266   1.268       .  A
O260        C267   1.270       .  A
O261        C267   1.279       .  A
C262        C358   1.486       .  S
C263        C457   1.471       .  S
C264        C406   1.505       .  S
C265        C377   1.490       .  S
C266        C441   1.460       .  S
C267        C390   1.494       .  S
C268        C753   1.754       .  S
C268        C813   1.600       .  S
C268        C826   1.623       .  S
C268        C374   1.614   1_565  S
C269        C752   1.754       .  S
C269        C294   1.617       .  S
C269        C310   1.634       .  S
C269        C361   1.659       .  S
Zn270       O759   2.037       .  S
Zn270       O279   2.037   1_455  S
Zn270       O286   2.042       .  S
Zn271       O274   1.963       .  S
Zn271       O276   2.012   1_455  S
Zn271       O762   2.035       .  S
Zn271       O282   2.032       .  S
Zn272       O274   1.968   1_655  S
Zn272      O1003   2.006       .  S
Zn272      O1248   2.010       .  S
Zn272       O283   2.026       .  S
Zn273       O274   1.959       .  S
Zn273       O281   2.012       .  S
Zn273       O284   2.019       .  S
O275       Zn754   2.035       .  S
O276       C1256   1.273       .  A
O277       Zn998   2.019   1_556  S
O277        C289   1.271       .  A
O278       Zn755   2.034       .  S
O278        C287   1.275       .  A
O279       C1257   1.276       .  A
O280      Zn1240   2.029       .  S
O280        C288   1.274       .  A
O281        C290   1.274       .  A
O282        C291   1.274       .  A
O283        C290   1.272   1_655  A
O284        C291   1.274       .  A
O285        C292   1.271       .  A
O286        C292   1.279       .  A
C287        C473   1.483       .  S
C288       O1244   1.273       .  A
C288        C345   1.471       .  S
C289       O1247   1.275       .  A
C289        C326   1.497       .  S
C290        C422   1.491       .  S
C291        C313   1.480       .  S
C292        C297   1.489       .  S
C293        C294   1.427       .  A
C293        C298   1.410       .  A
C293        H300   1.076       .  S
C294        C295   1.456       .  A
C295        C302   1.514       .  S
C295        C296   1.405       .  A
C296        C297   1.388       .  A
C296        H301   1.086       .  S
C297        C298   1.409       .  A
C298        C299   1.510       .  S
C299        H303   1.111       .  S
C299        H304   1.110       .  S
C299        H305   1.110       .  S
C302        H306   1.112       .  S
C302        H307   1.087       .  S
C302        H308   1.108       .  S
C309        C310   1.444       .  A
C309        C314   1.403       .  A
C309        H316   1.075       .  S
C310        C311   1.455       .  A
C311        C318   1.502       .  S
C311        C312   1.411       .  A
C312        C313   1.391       .  A
C312        H317   1.086       .  S
C313        C314   1.397       .  A
C314        C315   1.511       .  S
C315        H319   1.111       .  S
C315        H320   1.111       .  S
C315        H321   1.110       .  S
C318        H322   1.088       .  S
C318        H323   1.106       .  S
C318        H324   1.112       .  S
C325        C326   1.393       .  A
C325        C330   1.403       .  A
C325        H332   1.084       .  S
C326        C327   1.411       .  A
C327        C818   1.509       .  S
C327        C328   1.411       .  A
C328        C329   1.409       .  A
C328        H817   1.056       .  S
C329        C752   1.600       .  S
C329        C330   1.455       .  A
C330        C331   1.514       .  S
C331        H335   1.106       .  S
C331        H336   1.103       .  S
C331        H337   1.111       .  S
H333        C812   1.054       .  S
C334        C811   1.510       .  S
C334        H338   1.110       .  S
C334        H823   1.110       .  S
C334        H340   1.111       .  S
H339        C818   1.110       .  S
C341        C826   1.438   1_545  A
C341        C346   1.400       .  A
C341        H348   1.062       .  S
C342        C752   1.619       .  S
C342        C825   1.438       .  A
C342        C343   1.455       .  A
C343        C350   1.500       .  S
C343        C344   1.413       .  A
C344        C345   1.389       .  A
C344        H349   1.086       .  S
C345        C830   1.394       .  A
C346        C347   1.513       .  S
C346        C829   1.395   1_545  A
C347        H351   1.111       .  S
C347        H352   1.110       .  S
C347        H353   1.109       .  S
C350        H354   1.108       .  S
C350        H355   1.082       .  S
C350        H356   1.111       .  S
C357        C358   1.388       .  A
C357        C362   1.420       .  A
C357        H364   1.087       .  S
C358        C359   1.395       .  A
C359        C366   1.513       .  S
C359        C360   1.403       .  A
C360        C361   1.442       .  A
C360        H365   1.070       .  S
C361        C362   1.470       .  A
C362        C363   1.517       .  S
C363        H367   1.107       .  S
C363        H368   1.113       .  S
C363        H369   1.082       .  S
C366        H370   1.108       .  S
C366        H371   1.111       .  S
C366        H372   1.111       .  S
C373        C374   1.427       .  A
C373        C378   1.412       .  A
C373        H380   1.069       .  S
C374        C375   1.454       .  A
C375        C382   1.514       .  S
C375        C376   1.395       .  A
C376        C377   1.391       .  A
C376        H381   1.085       .  S
C377        C378   1.409       .  A
C378        C379   1.507       .  S
C379        H383   1.111       .  S
C379        H384   1.110       .  S
C379        H385   1.110       .  S
C382        H386   1.107       .  S
C382        H387   1.097       .  S
C382        H388   1.112       .  S
C389        C390   1.382       .  A
C389        C394   1.411       .  A
C389        H396   1.085       .  S
C390        C391   1.404       .  A
C391        C398   1.498       .  S
C391        C392   1.406       .  A
C392        C393   1.427       .  A
C392        H397   1.069       .  S
C393        C970   1.634       .  S
C393        C394   1.459       .  A
C394       C1363   1.492       .  S
C395       C1362   1.495       .  S
C395        H399   1.112       .  S
C395        H400   1.081       .  S
C395        H401   1.104       .  S
C398        H402   1.109       .  S
C398        H403   1.107       .  S
C398        H404   1.111       .  S
C405        C406   1.397       .  A
C405        C410   1.414       .  A
C405        H412   1.085       .  S
C406        C407   1.408       .  A
C407        C414   1.513       .  S
C407        C408   1.408       .  A
C408        C409   1.428       .  A
C408        H413   1.048       .  S
C409       C1212   1.657       .  S
C409        C410   1.457       .  A
C410        C411   1.503       .  S
C411        H415   1.111       .  S
C411        H416   1.110       .  S
C411       H1385   1.081       .  S
C414        H418   1.109       .  S
C414        H419   1.111       .  S
C414        H420   1.111       .  S
H417       C1379   1.082       .  S
C421        C422   1.391       .  A
C421        C426   1.409       .  A
C421        H428   1.085       .  S
C422       C1149   1.402   1_455  A
C423        C430   1.509       .  S
C423       C1148   1.402   1_554  A
C423        C424   1.404   1_554  A
C424       C1151   1.438       .  A
C424        H429   1.076       .  S
C425       C1150   1.438   1_455  A
C425        C426   1.456       .  A
C426        C427   1.510       .  S
C427        H431   1.110       .  S
C427        H433   1.076       .  S
C430        H434   1.110   1_554  S
C430        H436   1.111       .  S
C437        C438   1.412       .  A
C437        C442   1.386       .  A
C437        H444   1.059       .  S
C438        C439   1.461       .  A
C439        C446   1.514       .  S
C439        C440   1.409       .  A
C440        C441   1.384       .  A
C440        H445   1.085       .  S
C441        C442   1.391       .  A
C442        C443   1.500       .  S
C443        H447   1.111       .  S
C443        H448   1.111       .  S
C443        H449   1.106       .  S
C446        H450   1.111       .  S
C446        H451   1.088       .  S
C446        H452   1.108       .  S
C453        C454   1.439       .  A
C453        C458   1.414       .  A
C453        H460   1.081       .  S
C454        C455   1.471       .  A
C455        C462   1.509       .  S
C455        C456   1.401       .  A
C456        C457   1.371       .  A
C456        H461   1.087       .  S
C457        C458   1.399       .  A
C458        C459   1.503       .  S
C459        H463   1.111       .  S
C459        H464   1.110       .  S
C459        H465   1.111       .  S
C462        H468   1.091       .  S
C469        C474   1.409       .  A
C469        H476   1.062       .  S
C470        C471   1.462       .  A
C471        C478   1.517       .  S
C471        C472   1.411       .  A
C472        C473   1.387       .  A
C472        H477   1.085       .  S
C474        C475   1.507   1_455  S
C475       H1447   1.111       .  S
C475       H1206   1.110       .  S
C475       H1449   1.110       .  S
C478        H482   1.111       .  S
C478        H484   1.105       .  S
H479       C1443   1.111       .  S
H480       C1201   1.110       .  S
H481       C1443   1.110       .  S
C485        C486   1.742       .  S
C485        C922   1.597       .  S
C485        C696   1.645   1_556  S
C485        C712   1.621       .  S
C486       C1845   1.638       .  S
C486       C1619   1.658   1_556  S
C486        C667   1.623       .  S
Zn487       O491   1.983       .  S
Zn487       O492   2.108       .  S
Zn487       O496   2.080       .  S
Zn487       O503   2.070       .  S
Zn488       O491   1.952       .  S
Zn488       O493   1.995       .  S
Zn488       O495   1.994       .  S
Zn488       O499   1.970       .  S
Zn489       O491   1.960       .  S
Zn489       O494   2.028       .  S
Zn489       O497   2.047       .  S
Zn489       O500   2.041       .  S
Zn490       O491   1.953       .  S
Zn490       O498   2.009       .  S
Zn490       O501   1.996       .  S
Zn490       O502   2.002       .  S
O492        C504   1.285       .  A
O493        C505   1.268       .  A
O494        C506   1.277       .  A
O495        C504   1.269       .  A
O496        C506   1.283       .  A
O497        C505   1.277       .  A
O498        C507   1.274       .  A
O499        C508   1.265       .  A
O500        C507   1.274       .  A
O501        C508   1.271       .  A
O502        C509   1.269       .  A
O503        C509   1.283       .  A
C504        C600   1.515       .  S
C505        C699   1.472       .  S
C506        C648   1.511       .  S
C507        C619   1.494       .  S
C508        C683   1.460       .  S
C509        C632   1.495       .  S
C510        C616   1.623       .  S
C511        C536   1.631       .  S
C511        C552   1.622       .  S
C511        C603   1.632       .  S
Zn512       O758   1.958   1_545  S
Zn512       O521   2.043   1_445  S
Zn512       O528   2.035   1_545  S
Zn513       O516   1.959   1_545  S
Zn513       O518   2.018   1_445  S
Zn513       O524   2.042   1_545  S
Zn514       O516   1.973   1_655  S
Zn514      O1729   2.023   1_554  S
Zn514      O1490   2.026       .  S
Zn514       O525   2.023   1_655  S
Zn515       O516   1.964       .  S
Zn515       O523   1.997       .  S
Zn515       O526   2.024       .  S
Zn515       O769   2.012   1_554  S
O516       Zn754   1.962   1_564  S
O517        C771   1.278       .  A
O518       C1498   1.273       .  A
O519      Zn1724   2.024       .  S
O519        C531   1.273       .  A
O520        C529   1.276       .  A
O521       C1499   1.277       .  A
O522      Zn1482   2.022       .  S
O522        C530   1.275       .  A
O523        C532   1.273       .  A
O524        C533   1.276       .  A
O525        C532   1.272       .  A
O526        C533   1.273       .  A
O527       Zn757   2.000       .  S
O527        C534   1.269       .  A
O528        C534   1.278       .  A
C529        O759   1.276   1_554  A
C529        C715   1.481       .  S
C530       O1486   1.274       .  A
C530        C587   1.472       .  S
C531       O1489   1.276       .  A
C531        C568   1.503       .  S
C532        C664   1.490   1_554  S
C533        C555   1.494       .  S
C534        C539   1.490       .  S
C535        C536   1.432       .  A
C535        C540   1.407       .  A
C535        H542   1.069       .  S
C536        C537   1.463       .  A
C537        C544   1.513   1_565  S
C537        C538   1.405       .  A
C538        C539   1.386       .  A
C538        H543   1.087   1_565  S
C539        C540   1.407       .  A
C540        C541   1.511       .  S
C541        H545   1.111       .  S
C541        H546   1.110       .  S
C541        H547   1.110       .  S
C544        H548   1.113       .  S
C544        H549   1.079       .  S
C544        H550   1.109       .  S
C551        C552   1.432       .  A
C551        C556   1.403       .  A
C551        H558   1.074       .  S
C552        C553   1.451       .  A
C553        C560   1.517       .  S
C553        C554   1.415       .  A
C554        C555   1.400       .  A
C554        H559   1.085       .  S
C555        C556   1.405       .  A
C556        C557   1.512       .  S
C557        H561   1.111       .  S
C557        H562   1.111       .  S
C557        H563   1.109   1_565  S
C560        H564   1.097       .  S
C560        H565   1.110       .  S
C560        H566   1.110       .  S
C567        C568   1.400       .  A
C567        C572   1.406       .  A
C567        H574   1.084   1_565  S
C568        C569   1.416       .  A
C569        C570   1.410       .  A
C570        C571   1.406       .  A
C571        C572   1.452       .  A
C572        C573   1.519   1_565  S
C573        H577   1.111       .  S
C573        H578   1.100       .  S
C573        H579   1.111       .  S
C576        H580   1.110       .  S
C576        H582   1.110       .  S
C583        C588   1.403       .  A
C583        H590   1.051       .  S
C584        C585   1.466       .  A
C585        C592   1.509       .  S
C585        C586   1.411       .  A
C586        C587   1.384       .  A
C586        H591   1.087       .  S
C588        C589   1.510       .  S
C589        H593   1.111       .  S
C589        H594   1.110       .  S
C589        H595   1.110       .  S
C592        H596   1.111       .  S
C592        H597   1.074       .  S
C592        H598   1.111       .  S
C599        C600   1.406       .  A
C599        C604   1.417       .  A
C599        H606   1.085       .  S
C600        C601   1.425       .  A
C601        C608   1.511       .  S
C601        C602   1.409       .  A
C602        C603   1.426       .  A
C602        H607   1.080       .  S
C603        C604   1.438       .  A
C604        C605   1.529       .  S
C605        H609   1.103       .  S
C605        H610   1.114       .  S
C605        H611   1.097       .  S
C608        H612   1.110       .  S
C608        H613   1.111       .  S
C608        H614   1.111       .  S
C615        C616   1.422       .  A
C615        C620   1.411       .  A
C615        H622   1.070       .  S
C616        C617   1.455       .  A
C617        C624   1.515       .  S
C617        C618   1.401       .  A
C618        C619   1.394       .  A
C618        H623   1.085       .  S
C619        C620   1.410       .  A
C620        C621   1.509       .  S
C621        H625   1.111       .  S
C621        H626   1.109       .  S
C621        H627   1.111       .  S
C624        H628   1.110       .  S
C624        H629   1.095       .  S
C624        H630   1.112       .  S
C631        C632   1.380       .  A
C631        C636   1.409       .  A
C631        H638   1.085       .  S
C632        C633   1.406       .  A
C633        C640   1.502       .  S
C633        C634   1.408       .  A
C634        C635   1.429       .  A
C634        H639   1.066       .  S
C635       C1696   1.635       .  S
C635        C636   1.461       .  A
C636       C1605   1.494       .  S
C637       C1604   1.492       .  S
C637        H641   1.112       .  S
C637        H642   1.082       .  S
C637        H643   1.103       .  S
C640        H644   1.110       .  S
C640        H645   1.105       .  S
C640        H646   1.111       .  S
C647        C648   1.399       .  A
C647        C652   1.418       .  A
C647        H654   1.085       .  S
C648        C649   1.410       .  A
C649        C656   1.515       .  S
C649        C650   1.406       .  A
C650        C651   1.428       .  A
C650        H655   1.049       .  S
C651       C1454   1.660   1_554  S
C651        C652   1.458       .  A
C652        C653   1.504       .  S
C653        H657   1.111       .  S
C653        H658   1.110       .  S
C653       H1627   1.080       .  S
C656        H660   1.110       .  S
C656        H661   1.110       .  S
C656        H662   1.111       .  S
H659       C1621   1.083       .  S
C663        C664   1.392       .  A
C663        C668   1.407       .  A
C663        H670   1.086       .  S
C664       C1875   1.403   1_556  A
C665        C672   1.509       .  S
C665       C1874   1.403       .  A
C665        C666   1.404       .  A
C666       C1877   1.438       .  A
C666        H671   1.079       .  S
C667       C1876   1.437       .  A
C667        C668   1.458       .  A
C668        C669   1.510       .  S
C669        H673   1.110       .  S
C669        H916   1.109       .  S
C669        H675   1.072       .  S
C672        H676   1.110       .  S
C672        H919   1.111       .  S
C672        H678   1.111       .  S
H674        C911   1.109       .  S
H677        C914   1.111       .  S
C679        C680   1.418       .  A
C679        C684   1.390       .  A
C679        H686   1.058       .  S
C680        C727   1.602       .  S
C680        C681   1.465       .  A
C681        C688   1.516       .  S
C681        C682   1.407       .  A
C682        C683   1.381       .  A
C682        H687   1.086       .  S
C683        C684   1.390       .  A
C684        C685   1.503       .  S
C685        H689   1.111       .  S
C685        H690   1.111       .  S
C685        H691   1.104       .  S
C688        H692   1.111       .  S
C688        H693   1.087       .  S
C688        H694   1.107       .  S
C695        C696   1.439       .  A
C695        C700   1.415       .  A
C695        H702   1.080       .  S
C696        C697   1.468       .  A
C697        C704   1.510       .  S
C697        C698   1.401       .  A
C698        C699   1.373       .  A
C698        H703   1.087       .  S
C699        C700   1.400       .  A
C700        C701   1.504       .  S
C701        H705   1.111       .  S
C701        H706   1.110       .  S
C701        H707   1.111       .  S
C704        H950   1.092   1_554  S
C704        H951   1.111       .  S
C704        H710   1.092       .  S
H708        C946   1.093       .  S
H709        C946   1.111       .  S
C711        C954   1.415       .  A
C711        C716   1.411       .  A
C711        H718   1.061       .  S
C712        C953   1.415       .  A
C712        C713   1.462   1_556  A
C713        C720   1.516       .  S
C713        C714   1.407       .  A
C714        C715   1.384       .  A
C714        H719   1.085       .  S
C715        C958   1.401   1_554  A
C716        C717   1.507   1_455  S
C716        C957   1.400       .  A
C717       H1689   1.111       .  S
C717       H1932   1.110       .  S
C717       H1691   1.110       .  S
C720        H724   1.111       .  S
C720        H967   1.096       .  S
C720        H726   1.105   1_554  S
H721       C1685   1.111       .  S
H722       C1927   1.110   1_554  S
H723       C1685   1.110       .  S
H725        C962   1.097       .  S
C727        C728   1.743       .  S
C727        C938   1.645       .  S
C727        C954   1.624       .  S
C728       C1603   1.634       .  S
C728       C1861   1.661       .  S
C728        C909   1.624       .  S
Zn729       O733   1.976       .  S
Zn729       O734   2.074       .  S
Zn729       O738   2.064       .  S
Zn729       O745   2.058       .  S
Zn730       O733   1.959       .  S
Zn730       O735   1.997       .  S
Zn730       O737   2.003       .  S
Zn730       O741   1.986       .  S
Zn731       O733   1.969       .  S
Zn731       O736   2.033       .  S
Zn731       O739   2.043       .  S
Zn731       O742   2.032       .  S
Zn732       O733   1.940       .  S
Zn732       O740   1.980       .  S
Zn732       O743   1.975       .  S
Zn732       O744   2.012       .  S
O734        C746   1.281       .  A
O735        C747   1.269       .  A
O736        C748   1.278       .  A
O737        C746   1.272       .  A
O738        C748   1.281       .  A
O739        C747   1.276       .  A
O740        C749   1.272       .  A
O741        C750   1.266       .  A
O742        C749   1.272       .  A
O743        C750   1.268       .  A
O744        C751   1.270       .  A
O745        C751   1.280       .  A
C746        C842   1.491       .  S
C747        C941   1.471       .  S
C748        C890   1.506       .  S
C749        C861   1.488       .  S
C750        C925   1.459       .  S
C751        C874   1.495       .  S
C752        C858   1.612       .  S
C753        C778   1.619       .  S
C753        C794   1.630       .  S
C753        C845   1.661       .  S
Zn754       O763   2.034   1_445  S
Zn754       O770   2.042   1_545  S
Zn755       O758   1.965   1_545  S
Zn755       O760   2.018   1_455  S
Zn755       O766   2.038       .  S
Zn756       O758   1.967   1_655  S
Zn756      O1487   2.008       .  S
Zn756      O1732   2.012       .  S
Zn756       O767   2.023       .  S
Zn757       O758   1.958       .  S
Zn757       O765   2.002       .  S
Zn757       O768   2.009       .  S
O760       C1740   1.274   1_545  A
O761      Zn1482   2.025   1_556  S
O761        C773   1.273       .  A
O762        C771   1.275       .  A
O763       C1741   1.276       .  A
O764      Zn1724   2.034       .  S
O764        C772   1.275       .  A
O765        C774   1.273       .  A
O766        C775   1.274   1_545  A
O767        C774   1.271   1_655  A
O768        C775   1.272       .  A
O769        C776   1.271       .  A
O770        C776   1.279       .  A
C771        C957   1.484       .  S
C772       O1728   1.273       .  A
C772        C829   1.474       .  S
C773       O1731   1.275       .  A
C773        C810   1.498       .  S
C774        C906   1.488       .  S
C775        C797   1.480       .  S
C776        C781   1.490       .  S
C777        C778   1.425       .  A
C777        C782   1.408       .  A
C777        H784   1.075       .  S
C778        C779   1.458       .  A
C779        C786   1.515   1_565  S
C779        C780   1.406       .  A
C780        C781   1.388       .  A
C780        H785   1.086   1_565  S
C781        C782   1.408       .  A
C782        C783   1.510       .  S
C783        H787   1.111       .  S
C783        H788   1.110       .  S
C783        H789   1.110       .  S
C786        H790   1.112       .  S
C786        H791   1.087       .  S
C786        H792   1.108       .  S
C793        C794   1.444       .  A
C793        C798   1.402       .  A
C793        H800   1.076       .  S
C794        C795   1.452       .  A
C795        C802   1.502       .  S
C795        C796   1.411       .  A
C796        C797   1.393       .  A
C796        H801   1.086       .  S
C797        C798   1.397       .  A
C798        C799   1.511       .  S
C799        H803   1.111       .  S
C799        H804   1.111       .  S
C799        H805   1.110       .  S
C802        H806   1.089       .  S
C802        H807   1.106       .  S
C802        H808   1.112       .  S
C809        C810   1.395       .  A
C809        C814   1.404       .  A
C809        H816   1.084   1_565  S
C810        C811   1.410       .  A
C811        C812   1.411       .  A
C812        C813   1.409       .  A
C813        C814   1.454       .  A
C814        C815   1.514   1_565  S
C815        H819   1.106       .  S
C815        H820   1.104       .  S
C815        H821   1.111       .  S
C818        H822   1.110       .  S
C818        H824   1.111       .  S
C825        C830   1.398       .  A
C825        H832   1.062       .  S
C826        C827   1.456       .  A
C827        C834   1.500       .  S
C827        C828   1.413       .  A
C828        C829   1.388       .  A
C828        H833   1.086       .  S
C830        C831   1.513       .  S
C831        H835   1.111       .  S
C831        H836   1.110       .  S
C831        H837   1.109       .  S
C834        H838   1.108       .  S
C834        H839   1.081       .  S
C834        H840   1.112       .  S
C841        C842   1.388       .  A
C841        C846   1.421       .  A
C841        H848   1.087       .  S
C842        C843   1.397       .  A
C843        C850   1.513       .  S
C843        C844   1.405       .  A
C844        C845   1.443       .  A
C844        H849   1.070       .  S
C845        C846   1.471       .  A
C846        C847   1.518       .  S
C847        H851   1.107       .  S
C847        H852   1.113       .  S
C847        H853   1.082       .  S
C850        H854   1.109       .  S
C850        H855   1.110       .  S
C850        H856   1.111       .  S
C857        C858   1.426       .  A
C857        C862   1.411       .  A
C857        H864   1.068       .  S
C858        C859   1.453       .  A
C859        C866   1.514       .  S
C859        C860   1.395       .  A
C860        C861   1.391       .  A
C860        H865   1.085       .  S
C861        C862   1.409       .  A
C862        C863   1.507       .  S
C863        H867   1.111       .  S
C863        H868   1.110       .  S
C863        H869   1.110       .  S
C866        H870   1.107       .  S
C866        H871   1.096       .  S
C866        H872   1.112       .  S
C873        C874   1.381       .  A
C873        C878   1.411       .  A
C873        H880   1.085       .  S
C874        C875   1.405       .  A
C875        C882   1.497       .  S
C875        C876   1.407       .  A
C876        C877   1.426       .  A
C876        H881   1.069       .  S
C877       C1454   1.634       .  S
C877        C878   1.460       .  A
C878       C1847   1.493       .  S
C879       C1846   1.494       .  S
C879        H883   1.111       .  S
C879        H884   1.081       .  S
C879        H885   1.104       .  S
C882        H886   1.109       .  S
C882        H887   1.107       .  S
C882        H888   1.111       .  S
C889        C890   1.397       .  A
C889        C894   1.415       .  A
C889        H896   1.085       .  S
C890        C891   1.409       .  A
C891        C898   1.514       .  S
C891        C892   1.407       .  A
C892        C893   1.427       .  A
C892        H897   1.048       .  S
C893       C1696   1.656       .  S
C893        C894   1.457       .  A
C894        C895   1.504       .  S
C895        H899   1.111       .  S
C895        H900   1.110       .  S
C895       H1869   1.082       .  S
C898        H902   1.109       .  S
C898        H903   1.111       .  S
C898        H904   1.111       .  S
H901       C1863   1.080       .  S
C905        C906   1.391       .  A
C905        C910   1.407       .  A
C905        H912   1.086       .  S
C906       C1633   1.401   1_455  A
C907        C914   1.509       .  S
C907       C1632   1.402   1_554  A
C907        C908   1.406   1_554  A
C908       C1635   1.438       .  A
C908        H913   1.077   1_556  S
C909       C1634   1.439   1_455  A
C909        C910   1.457       .  A
C910        C911   1.510       .  S
C911        H915   1.110       .  S
C911        H917   1.075       .  S
C914        H918   1.110   1_554  S
C914        H920   1.111       .  S
C921        C922   1.413       .  A
C921        C926   1.386       .  A
C921        H928   1.059       .  S
C922        C923   1.462       .  A
C923        C930   1.514       .  S
C923        C924   1.410       .  A
C924        C925   1.384       .  A
C924        H929   1.085       .  S
C925        C926   1.391       .  A
C926        C927   1.500       .  S
C927        H931   1.111       .  S
C927        H932   1.111       .  S
C927        H933   1.105       .  S
C930        H934   1.111       .  S
C930        H935   1.088       .  S
C930        H936   1.107       .  S
C937        C938   1.439       .  A
C937        C942   1.415       .  A
C937        H944   1.081       .  S
C938        C939   1.470       .  A
C939        C946   1.509       .  S
C939        C940   1.400       .  A
C940        C941   1.371       .  A
C940        H945   1.087       .  S
C941        C942   1.400       .  A
C942        C943   1.503       .  S
C943        H947   1.111       .  S
C943        H948   1.110       .  S
C943        H949   1.111       .  S
C946        H952   1.091       .  S
C953        C958   1.410       .  A
C953        H960   1.062       .  S
C954        C955   1.462       .  A
C955        C962   1.516       .  S
C955        C956   1.410       .  A
C956        C957   1.387       .  A
C956        H961   1.085       .  S
C958        C959   1.507   1_455  S
C959       H1931   1.111       .  S
C959       H1690   1.110       .  S
C959       H1933   1.110       .  S
C962        H966   1.111       .  S
C962        H968   1.105       .  S
H963       C1927   1.111       .  S
H964       C1685   1.111       .  S
H965       C1927   1.110       .  S
C969        C970   1.743       .  S
C969       C1406   1.602       .  S
C969       C1180   1.643   1_556  S
C969       C1196   1.620       .  S
C970       C1151   1.624       .  S
Zn971       O975   1.982       .  S
Zn971       O976   2.092       .  S
Zn971       O980   2.068       .  S
Zn971       O987   2.060       .  S
Zn972       O975   1.954       .  S
Zn972       O977   1.999       .  S
Zn972       O979   2.001       .  S
Zn972       O983   1.988       .  S
Zn973       O975   1.964       .  S
Zn973       O978   2.034       .  S
Zn973       O981   2.041       .  S
Zn973       O984   2.035       .  S
Zn974       O975   1.947       .  S
Zn974       O982   1.989       .  S
Zn974       O985   1.991       .  S
Zn974       O986   1.997       .  S
O976        C988   1.283       .  A
O977        C989   1.269       .  A
O978        C990   1.277       .  A
O979        C988   1.271       .  A
O980        C990   1.282       .  A
O981        C989   1.277       .  A
O982        C991   1.272       .  A
O983        C992   1.266       .  A
O984        C991   1.273       .  A
O985        C992   1.269       .  A
O986        C993   1.269       .  A
O987        C993   1.280       .  A
C988       C1084   1.512       .  S
C989       C1183   1.470       .  S
C990       C1132   1.508       .  S
C991       C1103   1.490       .  S
C992       C1167   1.464       .  S
C993       C1116   1.490       .  S
C994       C1479   1.728       .  S
C994       C1539   1.587       .  S
C994       C1552   1.631       .  S
C994       C1100   1.623   1_565  S
C995       C1478   1.726       .  S
C995       C1020   1.633       .  S
C995       C1036   1.617       .  S
C995       C1087   1.626       .  S
Zn996      O1242   1.958       .  S
Zn996      O1485   2.030       .  S
Zn996      O1005   2.023       .  S
Zn996      O1012   2.033       .  S
Zn997      O1000   1.957       .  S
Zn997      O1002   2.025       .  S
Zn997      O1488   2.036       .  S
Zn997      O1008   2.038       .  S
Zn998      O1000   1.974       .  S
Zn998      O1009   2.027       .  S
Zn999      O1000   1.952       .  S
Zn999      O1007   1.996       .  S
Zn999      O1010   1.999       .  S
Zn999      O1253   1.982   1_554  S
O1000     Zn1238   1.952   1_554  S
O1001     Zn1480   2.038       .  S
O1001      C1255   1.275       .  A
O1003      C1015   1.270       .  A
O1004     Zn1481   2.031       .  S
O1004      C1013   1.275       .  A
O1006      C1014   1.274       .  A
O1007      C1016   1.272       .  A
O1008      C1017   1.276       .  A
O1009      C1016   1.273       .  A
O1010      C1017   1.270       .  A
O1011     Zn1241   1.995       .  S
O1011      C1018   1.270       .  A
O1012      C1018   1.277       .  A
C1013      O1243   1.275   1_554  A
C1013      C1199   1.478       .  S
C1014      C1071   1.472       .  S
C1015      C1052   1.501       .  S
C1016      C1148   1.492   1_554  S
C1017      C1039   1.483       .  S
C1018      C1023   1.490       .  S
C1019      C1020   1.429       .  A
C1019      C1024   1.400       .  A
C1019      H1026   1.062       .  S
C1020      C1021   1.464       .  A
C1021      C1028   1.513       .  S
C1021      C1022   1.409       .  A
C1022      C1023   1.390       .  A
C1022      H1027   1.086       .  S
C1023      C1024   1.405       .  A
C1024      C1025   1.513       .  S
C1025      H1029   1.111       .  S
C1025      H1030   1.110       .  S
C1025      H1031   1.110       .  S
C1028      H1032   1.112       .  S
C1028      H1033   1.081       .  S
C1028      H1034   1.109       .  S
C1035      C1036   1.434       .  A
C1035      C1040   1.398       .  A
C1035      H1042   1.075       .  S
C1036      C1037   1.445       .  A
C1037      C1044   1.514       .  S
C1037      C1038   1.414       .  A
C1038      C1039   1.400       .  A
C1038      H1043   1.085       .  S
C1039      C1040   1.400       .  A
C1040      C1041   1.512       .  S
C1041      H1045   1.111       .  S
C1041      H1046   1.111       .  S
C1041      H1047   1.109       .  S
C1044      H1048   1.095       .  S
C1044      H1049   1.110       .  S
C1044      H1050   1.110       .  S
C1051      C1052   1.399       .  A
C1051      C1056   1.405       .  A
C1051      H1058   1.084       .  S
C1052      C1053   1.417       .  A
C1053      C1544   1.511       .  S
C1053      C1054   1.406       .  A
C1054      C1055   1.406       .  A
C1054      H1543   1.050       .  S
C1055      C1478   1.585       .  S
C1055      C1056   1.451       .  A
C1056      C1057   1.518       .  S
C1057      H1061   1.111       .  S
C1057      H1062   1.100       .  S
C1057      H1063   1.111       .  S
H1059      C1538   1.053       .  S
C1060      C1537   1.511       .  S
C1060      H1064   1.110       .  S
C1060      H1549   1.110       .  S
C1060      H1066   1.110       .  S
H1065      C1544   1.110       .  S
C1067      C1552   1.432       .  A
C1067      C1072   1.403       .  A
C1067      H1074   1.050   1_565  S
C1068      C1478   1.634       .  S
C1068      C1551   1.429       .  A
C1068      C1069   1.468       .  A
C1069      C1076   1.507       .  S
C1069      C1070   1.408       .  A
C1070      C1071   1.381       .  A
C1070      H1075   1.087       .  S
C1071      C1556   1.391       .  A
C1072      C1073   1.510   1_565  S
C1072      C1555   1.390       .  A
C1073      H1077   1.111       .  S
C1073      H1078   1.110   1_545  S
C1073      H1079   1.111       .  S
C1076      H1080   1.111       .  S
C1076      H1081   1.067       .  S
C1076      H1082   1.112       .  S
C1083      C1084   1.411       .  A
C1083      C1088   1.418       .  A
C1083      H1090   1.084       .  S
C1084      C1085   1.424       .  A
C1085      C1092   1.512       .  S
C1085      C1086   1.405       .  A
C1086      C1087   1.424       .  A
C1086      H1091   1.078       .  S
C1087      C1088   1.440       .  A
C1088      C1089   1.539       .  S
C1089      H1093   1.100       .  S
C1089      H1094   1.115       .  S
C1089      H1095   1.098       .  S
C1092      H1096   1.110       .  S
C1092      H1097   1.110       .  S
C1092      H1098   1.111       .  S
C1099      C1100   1.421       .  A
C1099      C1104   1.410       .  A
C1099      H1106   1.074       .  S
C1100      C1101   1.454       .  A
C1101      C1108   1.515       .  S
C1101      C1102   1.397       .  A
C1102      C1103   1.393       .  A
C1102      H1107   1.085       .  S
C1103      C1104   1.410       .  A
C1104      C1105   1.508       .  S
C1105      H1109   1.111       .  S
C1105      H1110   1.110       .  S
C1105      H1111   1.111       .  S
C1108      H1112   1.109       .  S
C1108      H1113   1.094       .  S
C1108      H1114   1.112       .  S
C1115      C1116   1.380       .  A
C1115      C1120   1.411   1_655  A
C1115      H1122   1.085       .  S
C1116      C1117   1.403       .  A
C1117      C1124   1.497       .  S
C1117      C1118   1.403       .  A
C1118      C1119   1.425   1_655  A
C1118      H1123   1.069       .  S
C1119      C1120   1.460       .  A
C1121      H1125   1.112       .  S
C1121      H1126   1.080       .  S
C1121      H1127   1.104       .  S
C1124      H1128   1.109       .  S
C1124      H1129   1.107       .  S
C1124      H1130   1.111       .  S
C1131      C1132   1.398       .  A
C1131      C1136   1.415   1_655  A
C1131      H1138   1.085       .  S
C1132      C1133   1.410       .  A
C1133      C1140   1.513       .  S
C1133      C1134   1.408       .  A
C1134      C1135   1.427   1_655  A
C1134      H1139   1.048       .  S
C1135      C1136   1.455       .  A
C1136      C1137   1.504       .  S
C1137      H1141   1.111       .  S
C1137      H1142   1.110       .  S
C1140      H1144   1.109       .  S
C1140      H1145   1.111       .  S
C1140      H1146   1.111       .  S
C1147      C1148   1.393       .  A
C1147      C1152   1.409       .  A
C1147      H1154   1.086       .  S
C1149      C1156   1.509       .  S
C1149      C1150   1.407       .  A
C1150      H1155   1.076       .  S
C1151      C1152   1.457       .  A
C1152      C1153   1.509       .  S
C1153      H1157   1.110       .  S
C1153      H1400   1.109       .  S
C1153      H1159   1.076       .  S
C1156      H1160   1.110       .  S
C1156      H1403   1.110       .  S
C1156      H1162   1.111       .  S
H1158      C1395   1.109       .  S
H1161      C1398   1.110       .  S
C1163      C1164   1.413       .  A
C1163      C1168   1.388       .  A
C1163      H1170   1.059       .  S
C1164      C1211   1.598       .  S
C1164      C1165   1.462       .  A
C1165      C1172   1.514       .  S
C1165      C1166   1.409       .  A
C1166      C1167   1.384       .  A
C1166      H1171   1.085       .  S
C1167      C1168   1.392       .  A
C1168      C1169   1.498       .  S
C1169      H1173   1.111       .  S
C1169      H1174   1.110       .  S
C1169      H1175   1.106       .  S
C1172      H1176   1.111       .  S
C1172      H1177   1.088       .  S
C1172      H1178   1.108       .  S
C1179      C1180   1.439       .  A
C1179      C1184   1.414       .  A
C1179      H1186   1.081       .  S
C1180      C1181   1.468       .  A
C1181      C1188   1.509       .  S
C1181      C1182   1.400       .  A
C1182      C1183   1.373       .  A
C1182      H1187   1.087       .  S
C1183      C1184   1.400       .  A
C1184      C1185   1.504       .  S
C1185      H1189   1.111       .  S
C1185      H1190   1.110       .  S
C1185      H1191   1.111       .  S
C1188      H1434   1.093   1_554  S
C1188      H1435   1.111       .  S
C1188      H1194   1.092       .  S
H1192      C1430   1.091       .  S
H1193      C1430   1.111       .  S
C1195      C1438   1.416       .  A
C1195      C1200   1.409       .  A
C1195      H1202   1.062       .  S
C1196      C1437   1.415       .  A
C1196      C1197   1.461   1_556  A
C1197      C1204   1.516       .  S
C1197      C1198   1.407       .  A
C1198      C1199   1.384       .  A
C1198      H1203   1.085       .  S
C1199      C1442   1.399   1_554  A
C1200      C1201   1.507       .  S
C1200      C1441   1.399       .  A
C1204      H1208   1.111       .  S
C1204      H1451   1.097       .  S
C1204      H1210   1.105   1_554  S
H1209      C1446   1.096       .  S
C1211      C1212   1.741       .  S
C1211      C1422   1.641       .  S
C1211      C1438   1.622       .  S
C1212      C1393   1.621       .  S
Zn1213     O1217   1.984       .  S
Zn1213     O1218   2.102       .  S
Zn1213     O1222   2.079       .  S
Zn1213     O1229   2.067       .  S
Zn1214     O1217   1.955       .  S
Zn1214     O1219   1.984       .  S
Zn1214     O1221   1.997       .  S
Zn1214     O1225   1.967       .  S
Zn1215     O1217   1.963       .  S
Zn1215     O1220   2.036       .  S
Zn1215     O1223   2.040       .  S
Zn1215     O1226   2.042       .  S
Zn1216     O1217   1.952       .  S
Zn1216     O1224   2.006       .  S
Zn1216     O1227   1.993       .  S
Zn1216     O1228   2.004       .  S
O1218      C1230   1.283       .  A
O1219      C1231   1.267       .  A
O1220      C1232   1.278       .  A
O1221      C1230   1.269       .  A
O1222      C1232   1.283       .  A
O1223      C1231   1.276       .  A
O1224      C1233   1.273       .  A
O1225      C1234   1.264       .  A
O1226      C1233   1.274       .  A
O1227      C1234   1.270       .  A
O1228      C1235   1.270       .  A
O1229      C1235   1.282       .  A
C1230      C1326   1.514       .  S
C1231      C1425   1.466       .  S
C1232      C1374   1.514       .  S
C1233      C1345   1.495       .  S
C1234      C1409   1.459       .  S
C1235      C1358   1.495       .  S
C1236      C1721   1.725       .  S
C1236      C1781   1.588       .  S
C1236      C1794   1.628       .  S
C1236      C1342   1.623   1_565  S
C1237      C1720   1.727       .  S
C1237      C1262   1.632       .  S
C1237      C1278   1.621       .  S
C1237      C1329   1.629       .  S
Zn1238     O1727   2.030       .  S
Zn1238     O1247   2.012       .  S
Zn1238     O1254   2.044       .  S
Zn1239     O1242   1.945       .  S
Zn1239     O1244   1.999       .  S
Zn1239     O1730   2.024       .  S
Zn1239     O1250   2.029       .  S
Zn1240     O1242   1.976       .  S
Zn1240     O1251   2.023       .  S
Zn1241     O1242   1.954       .  S
Zn1241     O1249   1.997       .  S
Zn1241     O1252   2.021       .  S
O1243     Zn1722   2.035       .  S
O1245      C1257   1.271       .  A
O1246     Zn1723   2.025       .  S
O1246      C1255   1.274       .  A
O1248      C1256   1.273       .  A
O1249      C1258   1.273       .  A
O1250      C1259   1.274       .  A
O1251      C1258   1.272       .  A
O1252      C1259   1.272       .  A
O1253      C1260   1.267       .  A
O1254      C1260   1.277       .  A
C1255      C1441   1.480       .  S
C1256      C1313   1.466       .  S
C1257      C1294   1.502       .  S
C1258      C1390   1.491       .  S
C1259      C1281   1.489       .  S
C1260      C1265   1.490       .  S
C1261      C1262   1.429       .  A
C1261      C1266   1.402       .  A
C1261      H1268   1.065       .  S
C1262      C1263   1.465       .  A
C1263      C1270   1.512       .  S
C1263      C1264   1.409       .  A
C1264      C1265   1.389       .  A
C1264      H1269   1.086       .  S
C1265      C1266   1.408       .  A
C1266      C1267   1.514       .  S
C1267      H1271   1.111       .  S
C1267      H1272   1.110       .  S
C1267      H1273   1.110       .  S
C1270      H1274   1.112       .  S
C1270      H1275   1.081       .  S
C1270      H1276   1.109       .  S
C1277      C1278   1.433       .  A
C1277      C1282   1.400       .  A
C1277      H1284   1.074       .  S
C1278      C1279   1.450       .  A
C1279      C1286   1.514       .  S
C1279      C1280   1.415       .  A
C1280      C1281   1.399       .  A
C1280      H1285   1.085       .  S
C1281      C1282   1.402       .  A
C1282      C1283   1.513       .  S
C1283      H1287   1.111       .  S
C1283      H1288   1.111       .  S
C1283      H1289   1.109       .  S
C1286      H1290   1.094       .  S
C1286      H1291   1.110       .  S
C1286      H1292   1.110       .  S
C1293      C1294   1.400       .  A
C1293      C1298   1.406       .  A
C1293      H1300   1.084       .  S
C1294      C1295   1.416       .  A
C1295      C1786   1.510       .  S
C1295      C1296   1.408       .  A
C1296      C1297   1.405       .  A
C1296      H1785   1.053       .  S
C1297      C1720   1.587       .  S
C1297      C1298   1.452       .  A
C1298      C1299   1.519       .  S
C1299      H1303   1.111       .  S
C1299      H1304   1.100       .  S
C1299      H1305   1.111       .  S
H1301      C1780   1.054       .  S
C1302      C1779   1.510       .  S
C1302      H1306   1.110       .  S
C1302      H1791   1.110       .  S
C1302      H1308   1.111       .  S
H1307      C1786   1.110       .  S
C1309      C1794   1.428       .  A
C1309      C1314   1.401       .  A
C1309      H1316   1.052       .  S
C1310      C1720   1.626       .  S
C1310      C1793   1.426       .  A
C1310      C1311   1.464       .  A
C1311      C1318   1.507       .  S
C1311      C1312   1.406       .  A
C1312      C1313   1.382       .  A
C1312      H1317   1.087       .  S
C1313      C1798   1.390       .  A
C1314      C1315   1.510   1_565  S
C1314      C1797   1.390       .  A
C1315      H1319   1.111       .  S
C1315      H1320   1.110   1_545  S
C1315      H1321   1.110       .  S
C1318      H1322   1.111       .  S
C1318      H1323   1.072       .  S
C1318      H1324   1.111       .  S
C1325      C1326   1.409       .  A
C1325      C1330   1.417       .  A
C1325      H1332   1.084       .  S
C1326      C1327   1.426       .  A
C1327      C1334   1.511       .  S
C1327      C1328   1.407       .  A
C1328      C1329   1.424       .  A
C1328      H1333   1.080       .  S
C1329      C1330   1.438       .  A
C1330      C1331   1.534       .  S
C1331      H1335   1.102       .  S
C1331      H1336   1.115       .  S
C1331      H1337   1.099       .  S
C1334      H1338   1.110       .  S
C1334      H1339   1.110       .  S
C1334      H1340   1.111       .  S
C1341      C1342   1.422       .  A
C1341      C1346   1.411       .  A
C1341      H1348   1.070       .  S
C1342      C1343   1.453       .  A
C1343      C1350   1.513       .  S
C1343      C1344   1.401       .  A
C1344      C1345   1.395       .  A
C1344      H1349   1.085       .  S
C1345      C1346   1.410       .  A
C1346      C1347   1.509       .  S
C1347      H1351   1.111       .  S
C1347      H1352   1.109       .  S
C1347      H1353   1.111       .  S
C1350      H1354   1.110       .  S
C1350      H1355   1.095       .  S
C1350      H1356   1.112       .  S
C1357      C1358   1.381       .  A
C1357      C1362   1.410   1_655  A
C1357      H1364   1.085       .  S
C1358      C1359   1.407       .  A
C1359      C1366   1.502       .  S
C1359      C1360   1.408       .  A
C1360      C1361   1.428   1_655  A
C1360      H1365   1.067       .  S
C1361      C1362   1.461       .  A
C1363      H1367   1.112       .  S
C1363      H1368   1.082       .  S
C1363      H1369   1.104       .  S
C1366      H1370   1.109       .  S
C1366      H1371   1.107       .  S
C1366      H1372   1.111       .  S
C1373      C1374   1.399       .  A
C1373      C1378   1.419   1_655  A
C1373      H1380   1.085       .  S
C1374      C1375   1.411       .  A
C1375      C1382   1.515       .  S
C1375      C1376   1.408       .  A
C1376      C1377   1.430   1_655  A
C1376      H1381   1.050       .  S
C1377      C1378   1.458       .  A
C1378      C1379   1.505       .  S
C1379      H1383   1.111       .  S
C1379      H1384   1.110       .  S
C1382      H1386   1.110       .  S
C1382      H1387   1.110       .  S
C1382      H1388   1.111       .  S
C1389      C1390   1.393       .  A
C1389      C1394   1.407       .  A
C1389      H1396   1.086       .  S
C1391      C1398   1.509   1_556  S
C1391      C1392   1.406   1_655  A
C1392      H1397   1.079   1_455  S
C1393      C1394   1.455       .  A
C1394      C1395   1.511       .  S
C1395      H1399   1.110       .  S
C1395      H1401   1.075       .  S
C1398      H1402   1.110   1_554  S
C1398      H1404   1.111       .  S
C1405      C1406   1.416       .  A
C1405      C1410   1.388       .  A
C1405      H1412   1.057       .  S
C1406      C1407   1.465       .  A
C1407      C1414   1.516       .  S
C1407      C1408   1.408       .  A
C1408      C1409   1.383       .  A
C1408      H1413   1.085       .  S
C1409      C1410   1.389       .  A
C1410      C1411   1.503       .  S
C1411      H1415   1.111       .  S
C1411      H1416   1.111       .  S
C1411      H1417   1.107       .  S
C1414      H1418   1.111       .  S
C1414      H1419   1.087       .  S
C1414      H1420   1.107       .  S
C1421      C1422   1.439       .  A
C1421      C1426   1.413       .  A
C1421      H1428   1.080       .  S
C1422      C1423   1.470       .  A
C1423      C1430   1.512       .  S
C1423      C1424   1.399       .  A
C1424      C1425   1.371       .  A
C1424      H1429   1.087       .  S
C1425      C1426   1.398       .  A
C1426      C1427   1.504       .  S
C1427      H1431   1.111       .  S
C1427      H1432   1.110       .  S
C1427      H1433   1.111       .  S
C1430      H1436   1.092       .  S
C1437      C1442   1.409       .  A
C1437      H1444   1.062       .  S
C1438      C1439   1.464       .  A
C1439      C1446   1.517       .  S
C1439      C1440   1.408       .  A
C1440      C1441   1.384       .  A
C1440      H1445   1.085       .  S
C1442      C1443   1.506       .  S
C1446      H1450   1.111       .  S
C1446      H1452   1.105       .  S
C1453      C1454   1.743       .  S
C1453      C1890   1.600       .  S
C1453      C1664   1.643   1_556  S
C1453      C1680   1.621       .  S
C1454      C1635   1.626       .  S
Zn1455     O1459   1.984       .  S
Zn1455     O1460   2.089       .  S
Zn1455     O1464   2.069       .  S
Zn1455     O1471   2.064       .  S
Zn1456     O1459   1.961       .  S
Zn1456     O1461   1.995       .  S
Zn1456     O1463   2.009       .  S
Zn1456     O1467   1.989       .  S
Zn1457     O1459   1.963       .  S
Zn1457     O1462   2.040       .  S
Zn1457     O1465   2.045       .  S
Zn1457     O1468   2.039       .  S
Zn1458     O1459   1.950       .  S
Zn1458     O1466   2.002       .  S
Zn1458     O1469   1.989       .  S
Zn1458     O1470   1.997       .  S
O1460      C1472   1.283       .  A
O1461      C1473   1.269       .  A
O1462      C1474   1.278       .  A
O1463      C1472   1.272       .  A
O1464      C1474   1.281       .  A
O1465      C1473   1.277       .  A
O1466      C1475   1.273       .  A
O1467      C1476   1.267       .  A
O1468      C1475   1.273       .  A
O1469      C1476   1.269       .  A
O1470      C1477   1.269       .  A
O1471      C1477   1.281       .  A
C1472      C1568   1.510       .  S
C1473      C1667   1.470       .  S
C1474      C1616   1.511       .  S
C1475      C1587   1.498       .  S
C1476      C1651   1.464       .  S
C1477      C1600   1.491       .  S
C1478      C1584   1.624       .  S
C1479      C1504   1.628       .  S
C1479      C1520   1.615       .  S
C1479      C1571   1.633       .  S
Zn1480     O1726   1.958   1_545  S
Zn1480     O1489   2.031   1_545  S
Zn1480     O1496   2.033   1_545  S
Zn1481     O1484   1.959   1_545  S
Zn1481     O1486   2.022   1_545  S
Zn1481     O1492   2.030   1_545  S
Zn1482     O1484   1.972       .  S
Zn1482     O1493   2.029       .  S
Zn1483     O1484   1.953       .  S
Zn1483     O1491   2.002       .  S
Zn1483     O1494   2.001       .  S
Zn1483     O1737   1.987   1_554  S
O1484     Zn1722   1.952   1_564  S
O1485      C1739   1.275       .  A
O1487      C1499   1.270       .  A
O1488      C1497   1.276       .  A
O1490      C1498   1.274       .  A
O1491      C1500   1.273       .  A
O1492      C1501   1.275       .  A
O1493      C1500   1.273       .  A
O1494      C1501   1.271       .  A
O1495     Zn1725   1.992       .  S
O1495      C1502   1.269       .  A
O1496      C1502   1.278       .  A
C1497      O1727   1.275   1_554  A
C1497      C1683   1.479       .  S
C1498      C1555   1.472       .  S
C1499      C1536   1.502       .  S
C1500      C1632   1.492   1_554  S
C1501      C1523   1.482       .  S
C1502      C1507   1.483       .  S
C1503      C1504   1.431       .  A
C1503      C1508   1.403       .  A
C1503      H1510   1.069       .  S
C1504      C1505   1.463       .  A
C1505      C1512   1.514   1_565  S
C1505      C1506   1.405       .  A
C1506      C1507   1.386       .  A
C1506      H1511   1.087   1_565  S
C1507      C1508   1.404       .  A
C1508      C1509   1.512       .  S
C1509      H1513   1.111       .  S
C1509      H1514   1.111       .  S
C1509      H1515   1.110       .  S
C1512      H1516   1.113       .  S
C1512      H1517   1.079       .  S
C1512      H1518   1.108       .  S
C1519      C1520   1.433       .  A
C1519      C1524   1.397       .  A
C1519      H1526   1.074       .  S
C1520      C1521   1.449       .  A
C1521      C1528   1.517       .  S
C1521      C1522   1.412       .  A
C1522      C1523   1.399       .  A
C1522      H1527   1.085       .  S
C1523      C1524   1.400       .  A
C1524      C1525   1.513       .  S
C1525      H1529   1.111       .  S
C1525      H1530   1.111       .  S
C1525      H1531   1.110   1_565  S
C1528      H1532   1.097       .  S
C1528      H1533   1.110       .  S
C1528      H1534   1.111       .  S
C1535      C1536   1.399       .  A
C1535      C1540   1.406   1_565  A
C1535      H1542   1.084   1_565  S
C1536      C1537   1.417       .  A
C1537      C1538   1.407       .  A
C1538      C1539   1.406       .  A
C1539      C1540   1.452   1_565  A
C1540      C1541   1.518       .  S
C1541      H1545   1.110       .  S
C1541      H1546   1.099       .  S
C1541      H1547   1.111       .  S
C1544      H1548   1.110       .  S
C1544      H1550   1.111       .  S
C1551      C1556   1.404       .  A
C1551      H1558   1.050       .  S
C1552      C1553   1.466       .  A
C1553      C1560   1.508       .  S
C1553      C1554   1.410       .  A
C1554      C1555   1.383       .  A
C1554      H1559   1.087       .  S
C1556      C1557   1.510       .  S
C1557      H1561   1.111       .  S
C1557      H1562   1.110       .  S
C1557      H1563   1.110       .  S
C1560      H1564   1.111       .  S
C1560      H1565   1.072       .  S
C1560      H1566   1.112       .  S
C1567      C1568   1.405       .  A
C1567      C1572   1.416       .  A
C1567      H1574   1.085       .  S
C1568      C1569   1.419       .  A
C1569      C1576   1.511       .  S
C1569      C1570   1.407       .  A
C1570      C1571   1.431       .  A
C1570      H1575   1.079       .  S
C1571      C1572   1.440       .  A
C1572      C1573   1.529       .  S
C1573      H1577   1.103       .  S
C1573      H1578   1.114       .  S
C1573      H1579   1.095       .  S
C1576      H1580   1.109       .  S
C1576      H1581   1.110       .  S
C1576      H1582   1.111       .  S
C1583      C1584   1.420       .  A
C1583      C1588   1.410       .  A
C1583      H1590   1.072       .  S
C1584      C1585   1.455       .  A
C1585      C1592   1.515       .  S
C1585      C1586   1.402       .  A
C1586      C1587   1.397       .  A
C1586      H1591   1.085       .  S
C1587      C1588   1.412       .  A
C1588      C1589   1.508       .  S
C1589      H1593   1.111       .  S
C1589      H1594   1.110       .  S
C1589      H1595   1.110       .  S
C1592      H1596   1.110       .  S
C1592      H1597   1.095       .  S
C1592      H1598   1.112       .  S
C1599      C1600   1.380       .  A
C1599      C1604   1.411   1_655  A
C1599      H1606   1.085       .  S
C1600      C1601   1.404       .  A
C1601      C1608   1.497       .  S
C1601      C1602   1.404       .  A
C1602      C1603   1.425   1_655  A
C1602      H1607   1.068       .  S
C1603      C1604   1.462       .  A
C1605      H1609   1.111       .  S
C1605      H1610   1.079       .  S
C1605      H1611   1.104       .  S
C1608      H1612   1.109       .  S
C1608      H1613   1.107       .  S
C1608      H1614   1.111       .  S
C1615      C1616   1.399       .  A
C1615      C1620   1.417   1_655  A
C1615      H1622   1.085       .  S
C1616      C1617   1.411       .  A
C1617      C1624   1.514       .  S
C1617      C1618   1.409       .  A
C1618      C1619   1.427   1_655  A
C1618      H1623   1.048       .  S
C1619      C1620   1.456       .  A
C1620      C1621   1.504       .  S
C1621      H1625   1.111       .  S
C1621      H1626   1.110       .  S
C1624      H1628   1.110       .  S
C1624      H1629   1.110       .  S
C1624      H1630   1.111       .  S
C1631      C1632   1.392       .  A
C1631      C1636   1.409       .  A
C1631      H1638   1.086       .  S
C1633      C1640   1.509       .  S
C1633      C1634   1.406       .  A
C1634      H1639   1.077       .  S
C1635      C1636   1.458       .  A
C1636      C1637   1.509       .  S
C1637      H1641   1.110       .  S
C1637      H1884   1.109       .  S
C1637      H1643   1.074       .  S
C1640      H1644   1.110       .  S
C1640      H1887   1.111       .  S
C1640      H1646   1.111       .  S
H1642      C1879   1.109       .  S
H1645      C1882   1.111       .  S
C1647      C1648   1.412       .  A
C1647      C1652   1.387       .  A
C1647      H1654   1.059       .  S
C1648      C1695   1.597       .  S
C1648      C1649   1.461       .  A
C1649      C1656   1.514       .  S
C1649      C1650   1.410       .  A
C1650      C1651   1.385       .  A
C1650      H1655   1.085       .  S
C1651      C1652   1.392       .  A
C1652      C1653   1.498       .  S
C1653      H1657   1.111       .  S
C1653      H1658   1.110       .  S
C1653      H1659   1.106       .  S
C1656      H1660   1.111       .  S
C1656      H1661   1.089       .  S
C1656      H1662   1.108       .  S
C1663      C1664   1.440       .  A
C1663      C1668   1.414       .  A
C1663      H1670   1.081       .  S
C1664      C1665   1.468       .  A
C1665      C1672   1.511       .  S
C1665      C1666   1.400       .  A
C1666      C1667   1.373       .  A
C1666      H1671   1.087       .  S
C1667      C1668   1.399       .  A
C1668      C1669   1.504       .  S
C1669      H1673   1.111       .  S
C1669      H1674   1.110       .  S
C1669      H1675   1.111       .  S
C1672      H1918   1.093   1_554  S
C1672      H1919   1.111       .  S
C1672      H1678   1.091       .  S
H1676      C1914   1.092       .  S
H1677      C1914   1.111       .  S
C1679      C1922   1.415       .  A
C1679      C1684   1.408       .  A
C1679      H1686   1.061       .  S
C1680      C1921   1.414       .  A
C1680      C1681   1.462   1_556  A
C1681      C1688   1.516       .  S
C1681      C1682   1.407       .  A
C1682      C1683   1.384       .  A
C1682      H1687   1.085       .  S
C1683      C1926   1.401   1_554  A
C1684      C1685   1.507       .  S
C1684      C1925   1.399       .  A
C1688      H1692   1.111       .  S
C1688      H1935   1.097       .  S
C1688      H1694   1.105   1_554  S
H1693      C1930   1.096       .  S
C1695      C1696   1.742       .  S
C1695      C1906   1.640       .  S
C1695      C1922   1.621       .  S
C1696      C1877   1.622       .  S
Zn1697     O1701   1.979       .  S
Zn1697     O1702   2.096       .  S
Zn1697     O1706   2.076       .  S
Zn1697     O1713   2.067       .  S
Zn1698     O1701   1.955       .  S
Zn1698     O1703   1.985       .  S
Zn1698     O1705   1.993       .  S
Zn1698     O1709   1.965       .  S
Zn1699     O1701   1.957       .  S
Zn1699     O1704   2.029       .  S
Zn1699     O1707   2.034       .  S
Zn1699     O1710   2.033       .  S
Zn1700     O1701   1.949       .  S
Zn1700     O1708   2.007       .  S
Zn1700     O1711   1.994       .  S
Zn1700     O1712   2.005       .  S
O1702      C1714   1.284       .  A
O1703      C1715   1.266       .  A
O1704      C1716   1.277       .  A
O1705      C1714   1.269       .  A
O1706      C1716   1.283       .  A
O1707      C1715   1.276       .  A
O1708      C1717   1.274       .  A
O1709      C1718   1.264       .  A
O1710      C1717   1.273       .  A
O1711      C1718   1.270       .  A
O1712      C1719   1.270       .  A
O1713      C1719   1.282       .  A
C1714      C1810   1.511       .  S
C1715      C1909   1.465       .  S
C1716      C1858   1.512       .  S
C1717      C1829   1.495       .  S
C1718      C1893   1.458       .  S
C1719      C1842   1.497       .  S
C1720      C1826   1.625       .  S
C1721      C1746   1.636       .  S
C1721      C1762   1.617       .  S
C1721      C1813   1.626       .  S
Zn1722     O1731   2.012   1_545  S
Zn1722     O1738   2.040   1_545  S
Zn1723     O1726   1.948   1_545  S
Zn1723     O1728   2.004   1_545  S
Zn1723     O1734   2.027   1_545  S
Zn1724     O1726   1.973       .  S
Zn1724     O1735   2.029       .  S
Zn1725     O1726   1.960       .  S
Zn1725     O1733   1.995       .  S
Zn1725     O1736   2.011       .  S
O1729      C1741   1.272       .  A
O1730      C1739   1.274       .  A
O1732      C1740   1.273       .  A
O1733      C1742   1.272       .  A
O1734      C1743   1.274       .  A
O1735      C1742   1.273       .  A
O1736      C1743   1.272       .  A
O1737      C1744   1.267       .  A
O1738      C1744   1.278       .  A
C1739      C1925   1.478       .  S
C1740      C1797   1.468       .  S
C1741      C1778   1.503       .  S
C1742      C1874   1.491       .  S
C1743      C1765   1.487       .  S
C1744      C1749   1.490       .  S
C1745      C1746   1.431       .  A
C1745      C1750   1.403       .  A
C1745      H1752   1.065       .  S
C1746      C1747   1.466       .  A
C1747      C1754   1.513   1_565  S
C1747      C1748   1.408       .  A
C1748      C1749   1.387       .  A
C1748      H1753   1.087   1_565  S
C1749      C1750   1.407       .  A
C1750      C1751   1.513       .  S
C1751      H1755   1.111       .  S
C1751      H1756   1.110       .  S
C1751      H1757   1.110       .  S
C1754      H1758   1.113       .  S
C1754      H1759   1.079       .  S
C1754      H1760   1.109       .  S
C1761      C1762   1.430       .  A
C1761      C1766   1.398       .  A
C1761      H1768   1.074       .  S
C1762      C1763   1.451       .  A
C1763      C1770   1.515       .  S
C1763      C1764   1.413       .  A
C1764      C1765   1.399       .  A
C1764      H1769   1.085       .  S
C1765      C1766   1.403       .  A
C1766      C1767   1.512       .  S
C1767      H1771   1.111       .  S
C1767      H1772   1.110       .  S
C1767      H1773   1.110   1_565  S
C1770      H1774   1.093       .  S
C1770      H1775   1.110       .  S
C1770      H1776   1.110       .  S
C1777      C1778   1.400       .  A
C1777      C1782   1.406       .  A
C1777      H1784   1.084   1_565  S
C1778      C1779   1.416       .  A
C1779      C1780   1.409       .  A
C1780      C1781   1.406       .  A
C1781      C1782   1.451       .  A
C1782      C1783   1.519   1_565  S
C1783      H1787   1.111       .  S
C1783      H1788   1.100       .  S
C1783      H1789   1.111       .  S
C1786      H1790   1.110       .  S
C1786      H1792   1.111       .  S
C1793      C1798   1.400       .  A
C1793      H1800   1.052       .  S
C1794      C1795   1.464       .  A
C1795      C1802   1.508       .  S
C1795      C1796   1.407       .  A
C1796      C1797   1.383       .  A
C1796      H1801   1.087       .  S
C1798      C1799   1.509       .  S
C1799      H1803   1.111       .  S
C1799      H1804   1.110       .  S
C1799      H1805   1.110       .  S
C1802      H1806   1.111       .  S
C1802      H1807   1.073       .  S
C1802      H1808   1.111       .  S
C1809      C1810   1.408       .  A
C1809      C1814   1.415       .  A
C1809      H1816   1.084       .  S
C1810      C1811   1.427       .  A
C1811      C1818   1.511       .  S
C1811      C1812   1.408       .  A
C1812      C1813   1.425       .  A
C1812      H1817   1.080       .  S
C1813      C1814   1.436       .  A
C1814      C1815   1.533       .  S
C1815      H1819   1.102       .  S
C1815      H1820   1.115       .  S
C1815      H1821   1.099       .  S
C1818      H1822   1.110       .  S
C1818      H1823   1.110       .  S
C1818      H1824   1.111       .  S
C1825      C1826   1.422       .  A
C1825      C1830   1.410       .  A
C1825      H1832   1.069       .  S
C1826      C1827   1.455       .  A
C1827      C1834   1.514       .  S
C1827      C1828   1.402       .  A
C1828      C1829   1.395       .  A
C1828      H1833   1.085       .  S
C1829      C1830   1.411       .  A
C1830      C1831   1.509       .  S
C1831      H1835   1.111       .  S
C1831      H1836   1.109       .  S
C1831      H1837   1.111       .  S
C1834      H1838   1.110       .  S
C1834      H1839   1.095       .  S
C1834      H1840   1.112       .  S
C1841      C1842   1.382       .  A
C1841      C1846   1.412   1_655  A
C1841      H1848   1.085       .  S
C1842      C1843   1.406       .  A
C1843      C1850   1.502       .  S
C1843      C1844   1.408       .  A
C1844      C1845   1.427   1_655  A
C1844      H1849   1.066       .  S
C1845      C1846   1.462       .  A
C1847      H1851   1.112       .  S
C1847      H1852   1.082       .  S
C1847      H1853   1.104       .  S
C1850      H1854   1.110       .  S
C1850      H1855   1.105       .  S
C1850      H1856   1.111       .  S
C1857      C1858   1.398       .  A
C1857      C1862   1.418   1_655  A
C1857      H1864   1.085       .  S
C1858      C1859   1.410       .  A
C1859      C1866   1.515       .  S
C1859      C1860   1.407       .  A
C1860      C1861   1.429   1_655  A
C1860      H1865   1.050       .  S
C1861      C1862   1.458       .  A
C1862      C1863   1.504       .  S
C1863      H1867   1.111       .  S
C1863      H1868   1.110       .  S
C1866      H1870   1.110       .  S
C1866      H1871   1.110       .  S
C1866      H1872   1.111       .  S
C1873      C1874   1.394       .  A
C1873      C1878   1.408       .  A
C1873      H1880   1.086       .  S
C1875      C1882   1.509   1_455  S
C1875      C1876   1.405   1_554  A
C1876      H1881   1.079   1_455  S
C1877      C1878   1.456       .  A
C1878      C1879   1.510       .  S
C1879      H1883   1.110       .  S
C1879      H1885   1.075       .  S
C1882      H1886   1.109       .  S
C1882      H1888   1.111       .  S
C1889      C1890   1.416       .  A
C1889      C1894   1.388       .  A
C1889      H1896   1.057       .  S
C1890      C1891   1.465       .  A
C1891      C1898   1.516       .  S
C1891      C1892   1.408       .  A
C1892      C1893   1.383       .  A
C1892      H1897   1.086       .  S
C1893      C1894   1.389       .  A
C1894      C1895   1.503       .  S
C1895      H1899   1.111       .  S
C1895      H1900   1.111       .  S
C1895      H1901   1.106       .  S
C1898      H1902   1.111       .  S
C1898      H1903   1.087       .  S
C1898      H1904   1.107       .  S
C1905      C1906   1.440       .  A
C1905      C1910   1.412       .  A
C1905      H1912   1.080       .  S
C1906      C1907   1.468       .  A
C1907      C1914   1.511       .  S
C1907      C1908   1.398       .  A
C1908      C1909   1.372       .  A
C1908      H1913   1.087       .  S
C1909      C1910   1.399       .  A
C1910      C1911   1.504       .  S
C1911      H1915   1.111       .  S
C1911      H1916   1.110       .  S
C1911      H1917   1.110       .  S
C1914      H1920   1.092       .  S
C1921      C1926   1.410       .  A
C1921      H1928   1.062       .  S
C1922      C1923   1.464       .  A
C1923      C1930   1.517       .  S
C1923      C1924   1.408       .  A
C1924      C1925   1.384       .  A
C1924      H1929   1.085       .  S
C1926      C1927   1.507       .  S
C1930      H1934   1.111       .  S
C1930      H1936   1.105       .  S
