geometry optimzed in LAMMPS
_audit_creation_date              2020-11-30 
_audit_creation_method            'lammps2cif' 
_symmetry_space_group_name_H-M    'P1' 
_symmetry_Int_Tables_number       1 
_symmetry_cell_setting            triclinic 
loop_ 
_symmetry_equiv_pos_as_xyz 
  x,y,z 
_cell_length_a                    59.56547847 
_cell_length_b                    59.46922758652913 
_cell_length_c                    46.72779082130023 
_cell_angle_alpha                 89.97710951300382 
_cell_angle_beta                  90.01092964073251 
_cell_angle_gamma                 119.8866869513058 
loop_ 
_atom_site_label 
_atom_site_type_symbol 
_atom_site_fract_x 
_atom_site_fract_y 
_atom_site_fract_z 
_atom_site_charge 
C1          C  0.42581925  0.22109337  0.12529037     0.80600
N2          N  0.42545149  0.20889639  0.10051453    -0.77700
C3          C  0.42677673  0.18675865  0.10116481     0.83100
N4          N  0.42900858  0.17713679  0.12662483    -0.77600
C5          C  0.42896067  0.18880840  0.15152315     0.83200
N6          N  0.42779503  0.21105953  0.15078341    -0.79300
C7          C  0.26697484  0.85913736  0.37338032     0.80600
N8          N  0.25728967  0.84690370  0.39875029    -0.77700
C9          C  0.23500021  0.82370930  0.39950101     0.83100
N10         N  0.22233947  0.81281812  0.37479659    -0.77600
C11         C  0.23194834  0.82472765  0.34941017     0.83200
N12         N  0.25451190  0.84762489  0.34871168    -0.79300
C13         C  0.87344936  0.19892565  0.12715786     0.80600
N14         N  0.88420094  0.20848218  0.15316525    -0.77700
C15         C  0.90783067  0.23019974  0.15489048     0.83100
N16         N  0.92002007  0.24278818  0.13060208    -0.77600
C17         C  0.90930842  0.23372259  0.10454225     0.83200
N18         N  0.88588837  0.21169025  0.10290384    -0.79300
C19         C  0.69216812  0.82024529  0.37836399     0.80600
N20         N  0.69139141  0.83261171  0.35403232    -0.77700
C21         C  0.69080510  0.85521095  0.35561937     0.83100
N22         N  0.69180675  0.86558357  0.38164308    -0.77600
C23         C  0.69228214  0.85354968  0.40594534     0.83200
N24         N  0.69239286  0.83078471  0.40437033    -0.79300
C25         C  0.90542121  0.65987560  0.12375615     0.80600
N26         N  0.89344619  0.65964181  0.14862900    -0.77700
C27         C  0.87015903  0.65859292  0.14818735     0.83100
N28         N  0.85860751  0.65707787  0.12278568    -0.77600
C29         C  0.87036153  0.65757095  0.09782201     0.83200
N30         N  0.89386306  0.65900053  0.09828479    -0.79300
C31         C  0.24371678  0.40505899  0.37220027     0.80600
N32         N  0.25513613  0.40697739  0.34641478    -0.77700
C33         C  0.27897410  0.40938916  0.34519297     0.83100
N34         N  0.29157807  0.41040087  0.36962451    -0.77600
C35         C  0.28064199  0.40894872  0.39544374     0.83200
N36         N  0.25673203  0.40645872  0.39667698    -0.79300
O37         O  0.97408848  0.34805546  0.34191420    -0.78100
C38         C  0.98672693  0.35334174  0.43601960     0.83000
O39         O  0.96439958  0.41851960  0.37736979    -0.79200
O40         O  0.04285305  0.43841493  0.43237948    -0.80700
O41         O  0.06337064  0.40166977  0.35316208    -0.80500
O42         O  0.00871390  0.37270773  0.31514937    -0.79100
Zn43       Zn  0.97821867  0.36933255  0.37705591     1.55700
O44         O  0.06277754  0.40081823  0.40087629    -0.80500
Cd45       Cd  0.03080499  0.40348556  0.34203556     1.59700
Cd46       Cd  0.00396497  0.43166613  0.37576217     1.59600
O47         O  0.04256420  0.43749435  0.31970485    -0.80500
O48         O  0.01052822  0.40179261  0.37660910    -1.91000
Cd49       Cd  0.03067163  0.40368875  0.41149002     1.59900
O50         O  0.02052568  0.45460507  0.33970483    -0.80500
O51         O  0.00850374  0.37387407  0.43957812    -0.79100
C52         C  0.94517641  0.39548695  0.37842781     0.83400
C53         C  0.98696931  0.35217988  0.31884333     0.83100
O54         O  0.97431312  0.34873548  0.41259282    -0.78100
C55         C  0.07298181  0.40041903  0.37707093     0.83900
O56         O  0.94847172  0.37592856  0.37804743    -0.78200
C57         C  0.03614792  0.45496601  0.32079070     0.84000
C58         C  0.03734621  0.45645569  0.42966097     0.84300
O59         O  0.02199884  0.45584358  0.41027099    -0.80600
O60         O  0.17257478  0.70969485  0.09162174    -0.78100
C61         C  0.15434840  0.70498570  0.18389367     0.83000
O62         O  0.18457894  0.64270908  0.12598375    -0.79200
O63         O  0.10622465  0.61895430  0.18262351    -0.80700
O64         O  0.08390852  0.65653871  0.10103633    -0.80500
O65         O  0.13903766  0.68422096  0.06395919    -0.79100
Zn66       Zn  0.16780541  0.68941653  0.12750889     1.55700
O67         O  0.08063367  0.65202978  0.14838210    -0.80500
Cd68       Cd  0.11646743  0.65420088  0.09123886     1.59700
Cd69       Cd  0.14486377  0.62775064  0.12518933     1.59600
O70         O  0.10529914  0.62005366  0.06975338    -0.80500
O71         O  0.13629306  0.65619757  0.12620668    -1.91000
Cd72       Cd  0.11434933  0.65213329  0.16013374     1.59900
O73         O  0.12920023  0.60475990  0.08929097    -0.80500
O74         O  0.13379609  0.68321396  0.18733037    -0.79100
C75         C  0.20313328  0.66600459  0.12828924     0.83400
C76         C  0.16042593  0.70504855  0.06802510     0.83100
O77         O  0.16830326  0.71013703  0.16156253    -0.78100
C78         C  0.07208590  0.65478338  0.12435189     0.83900
O79         O  0.19899521  0.68497402  0.13001148    -0.78200
C80         C  0.11277404  0.60340097  0.07087740     0.84000
C81         C  0.11393190  0.60250699  0.18026574     0.84300
O82         O  0.12876890  0.60350055  0.16005218    -0.80600
O83         O  0.48341782  0.12647502  0.34193638    -0.78100
C84         C  0.47189090  0.11279780  0.43330440     0.83000
O85         O  0.56306931  0.13432873  0.37912646    -0.79200
O86         O  0.50480569  0.05882370  0.43664328    -0.80700
O87         O  0.44853069  0.03617491  0.35285558    -0.80500
O88         O  0.47127648  0.09093403  0.31631556    -0.79100
Zn89       Zn  0.50103438  0.12238164  0.37676980     1.55700
O90         O  0.44794744  0.03585096  0.40058412    -0.80500
Cd91       Cd  0.48213843  0.06961390  0.34211464     1.59700
Cd92       Cd  0.53613415  0.09508483  0.37763356     1.59600
O93         O  0.50545885  0.05976562  0.31842417    -0.80500
O94         O  0.50013312  0.08933369  0.37746038    -1.91000
Cd95       Cd  0.48154702  0.06923554  0.41266889     1.59900
O96         O  0.54302058  0.07933105  0.34148666    -0.80500
O97         O  0.47014989  0.09079774  0.43783147    -0.79100
C98         C  0.56020619  0.15418745  0.37828180     0.83400
C99         C  0.47265271  0.11281411  0.31980375     0.83100
O100        O  0.48269837  0.12578831  0.41087102    -0.78100
C101        C  0.43764890  0.02588313  0.37654263     0.83900
O102        O  0.53784661  0.15204421  0.37737035    -0.78200
C103        C  0.52903286  0.06549894  0.32074210     0.84000
C104        C  0.52791237  0.06316849  0.43300170     0.84300
O105        O  0.54187220  0.07678603  0.41216814    -0.80600
O106        O  0.65540122  0.93284622  0.09300686    -0.78100
C107        C  0.66339474  0.94385031  0.18607123     0.83000
O108        O  0.57553600  0.92435022  0.12763424    -0.79200
O109        O  0.63412031  0.00026626  0.18632849    -0.80700
O110        O  0.69015936  0.02358173  0.10461287    -0.80500
O111        O  0.66684041  0.96783606  0.06630131    -0.79100
Zn112      Zn  0.63770458  0.93654610  0.12764498     1.55700
O113        O  0.69083805  0.02267866  0.15218508    -0.80500
Cd114      Cd  0.65677801  0.98970394  0.09289207     1.59700
Cd115      Cd  0.60237878  0.96354440  0.12839986     1.59600
O116        O  0.63319313  0.99984235  0.06967323    -0.80500
O117        O  0.63857398  0.96954156  0.12810130    -1.91000
Cd118      Cd  0.65706712  0.98913259  0.16345296     1.59900
O119        O  0.59577633  0.98072851  0.09326179    -0.80500
O120        O  0.66621760  0.96638613  0.18984704    -0.79100
C121        C  0.57878101  0.90477763  0.12614954     0.83400
C122        C  0.66520327  0.94581132  0.07024806     0.83100
O123        O  0.65336076  0.93108205  0.16322152    -0.78100
C124        C  0.70088332  0.03374962  0.12848681     0.83900
O125        O  0.60123410  0.90721063  0.12568682    -0.78200
C126        C  0.60979524  0.99468009  0.07260187     0.84000
C127        C  0.61053711  0.99466405  0.18395844     0.84300
O128        O  0.59588464  0.97999477  0.16411880    -0.80600
C129        C  0.71673916  0.33307369  0.37525309     0.80600
N130        N  0.74126132  0.33705592  0.37559764    -0.77700
C131        C  0.76180672  0.36131772  0.37223046     0.83100
N132        N  0.75769832  0.38162173  0.36865791    -0.77600
C133        C  0.73328427  0.37786502  0.36786417     0.83200
N134        N  0.71288245  0.35353629  0.37132872    -0.79300
C135        C  0.42874560  0.72234561  0.12094187     0.80600
N136        N  0.43273694  0.70177249  0.11976024    -0.77700
C137        C  0.41245014  0.67716321  0.12150708     0.83100
N138        N  0.38806018  0.67315862  0.12478754    -0.77600
C139        C  0.38397022  0.69364182  0.12636758     0.83200
N140        N  0.40434330  0.71808544  0.12444520    -0.79300
O141        O  0.39343677  0.44833807  0.08597382    -0.78100
C142        C  0.39674546  0.44055623  0.17892859     0.83000
O143        O  0.46482673  0.52731975  0.11909644    -0.79200
O144        O  0.48159156  0.46855774  0.17849471    -0.80700
O145        O  0.44411571  0.40911890  0.09860117    -0.80500
O146        O  0.41642811  0.43579125  0.05980773    -0.79100
Zn147      Zn  0.41468395  0.46562375  0.12057580     1.55700
O148        O  0.44460222  0.41009951  0.14628137    -0.80500
Cd149      Cd  0.44708492  0.44399282  0.08679791     1.59700
Cd150      Cd  0.47603180  0.49943804  0.12000852     1.59600
O151        O  0.48141907  0.46533170  0.06453930    -0.80500
O152        O  0.44593960  0.46352183  0.12100729    -1.91000
Cd153      Cd  0.44735050  0.44544584  0.15641559     1.59900
O154        O  0.49898981  0.50411113  0.08520422    -0.80500
O155        O  0.41653137  0.43799973  0.18306979    -0.79100
C156        C  0.44229427  0.52475064  0.11944281     0.83400
C157        C  0.39657013  0.43827044  0.06338216     0.83100
O158        O  0.39382136  0.45000941  0.15578493    -0.78100
C159        C  0.44322398  0.39865632  0.12270342     0.83900
O160        O  0.42212158  0.50241326  0.11976430    -0.78200
C161        C  0.49937186  0.48891410  0.06624121     0.84000
C162        C  0.49957116  0.49210757  0.17557432     0.84300
O163        O  0.49940356  0.50607636  0.15505695    -0.80600
O164        O  0.75362426  0.60757358  0.33625767    -0.78100
C165        C  0.75299147  0.61806944  0.42820213     0.83000
O166        O  0.68229269  0.52813363  0.37144564    -0.79200
O167        O  0.66872365  0.58934093  0.43133952    -0.80700
O168        O  0.69846966  0.64310613  0.34728321    -0.80500
O169        O  0.72864900  0.61764389  0.30997716    -0.79100
Zn170      Zn  0.73275635  0.59012849  0.37123626     1.55700
O171        O  0.70150249  0.64548168  0.39489847    -0.80500
Cd172      Cd  0.69824585  0.60915327  0.33722128     1.59700
Cd173      Cd  0.67059555  0.55559261  0.37365856     1.59600
O174        O  0.66445755  0.58591868  0.31525293    -0.80500
O175        O  0.70101249  0.59158868  0.37227329    -1.91000
Cd176      Cd  0.70132515  0.61167770  0.40668997     1.59900
O177        O  0.64522977  0.54910892  0.34019027    -0.80500
O178        O  0.73374619  0.62163053  0.43174735    -0.79100
C179        C  0.70489099  0.53092629  0.36966775     0.83400
C180        C  0.74912038  0.61623410  0.31337797     0.83100
O181        O  0.75466819  0.60661265  0.40603520    -0.78100
C182        C  0.69981852  0.65459243  0.37076782     0.83900
O183        O  0.72510054  0.55326048  0.36933898    -0.78200
C184        C  0.64565366  0.56304873  0.31925315     0.84000
C185        C  0.65087848  0.56563344  0.43037403     0.84300
O186        O  0.64989029  0.55027713  0.41076558    -0.80600
C187        C  0.62407188  0.55245177  0.29852456    -0.11600
C188        C  0.59801751  0.53682480  0.30700919     0.03900
C189        C  0.57837196  0.52740496  0.28642155    -0.12100
C190        C  0.58415345  0.53280948  0.25724329     0.18800
C191        C  0.61015823  0.54870822  0.24881409    -0.09100
C192        C  0.62976477  0.55847465  0.26941688    -0.02100
H193        H  0.55842283  0.51586280  0.29322394     0.05300
C194        C  0.56271403  0.52223909  0.23616728     0.20700
H195        H  0.64965510  0.57044749  0.26256375     0.10500
C196        C  0.55885425  0.53939252  0.21909968    -0.15500
C197        C  0.53875823  0.53029017  0.19908372     0.03500
C198        C  0.52140386  0.50324480  0.19635013    -0.10800
C199        C  0.52523238  0.48617500  0.21384271    -0.00800
C200        C  0.54565266  0.49537822  0.23341956    -0.06000
H201        H  0.57158079  0.56008788  0.22143383     0.06500
H202        H  0.51253609  0.46543337  0.21203918     0.09900
Br203      Br  0.62023401  0.55693487  0.20946026    -0.05700
Br204      Br  0.58778897  0.52890058  0.34635951    -0.02600
Br205      Br  0.53644920  0.55640235  0.17711353     0.00200
Br206      Br  0.54986423  0.47025409  0.25502577    -0.04200
C207        C  0.52187812  0.49927850  0.04649478    -0.11600
C208        C  0.52189335  0.48706820  0.02048248     0.03900
C209        C  0.54377907  0.49849508  0.00284761    -0.12100
C210        C  0.56621213  0.52139227  0.01094226     0.18800
C211        C  0.56643343  0.53324533  0.03707396    -0.09100
C212        C  0.54441826  0.52234064  0.05432361    -0.02100
H213        H  0.54329727  0.48939943  0.48255961     0.05300
C214        C  0.58881759  0.53296834  0.49146250     0.20700
H215        H  0.54522445  0.53188697  0.07438279     0.10500
C216        C  0.59822358  0.55837503  0.48148493    -0.15500
C217        C  0.61917313  0.56985854  0.46261803     0.03500
C218        C  0.63039736  0.55537850  0.45236947    -0.10800
C219        C  0.62092425  0.52992802  0.46228031    -0.00800
C220        C  0.60063799  0.51883932  0.48201694    -0.06000
H221        H  0.58906299  0.56929504  0.48826291     0.06500
H222        H  0.62956740  0.51869774  0.45488750     0.09900
Br223      Br  0.59657650  0.56370607  0.05104857    -0.05700
Br224      Br  0.49303464  0.45517829  0.00709037    -0.02600
Br225      Br  0.63044234  0.60479077  0.45060262     0.00200
Br226      Br  0.59062779  0.48480842  0.99620489    -0.04200
C227        C  0.41690562  0.65491862  0.12073504    -0.11600
C228        C  0.43234435  0.65254489  0.09939771     0.03900
C229        C  0.43639268  0.63131717  0.09971428    -0.12100
C230        C  0.42525341  0.61230394  0.12101859     0.18800
C231        C  0.40989027  0.61464048  0.14237103    -0.09100
C232        C  0.40564336  0.63574495  0.14196215    -0.02100
H233        H  0.44804108  0.62944943  0.08307445     0.05300
C234        C  0.42965294  0.59001483  0.12034395     0.20700
H235        H  0.39386427  0.63743001  0.15857263     0.10500
C236        C  0.45283394  0.59285674  0.13119750    -0.15500
C237        C  0.45763758  0.57208658  0.13094736     0.03500
C238        C  0.43896558  0.54788121  0.11940538    -0.10800
C239        C  0.41581339  0.54533098  0.10834829    -0.00800
C240        C  0.41111414  0.56611542  0.10869963    -0.06000
H241        H  0.46712789  0.61128132  0.14026719     0.06500
H242        H  0.40123591  0.52705866  0.09926124     0.09900
Br243      Br  0.39481156  0.58973454  0.17269234    -0.05700
Br244      Br  0.44694065  0.67671858  0.06833016    -0.02600
Br245      Br  0.48930339  0.57793953  0.14833620     0.00200
Br246      Br  0.37922737  0.56113103  0.09284551    -0.04200
C247        C  0.72930169  0.40043780  0.36515468    -0.11600
C248        C  0.70771855  0.39905746  0.35086407     0.03900
C249        C  0.70448548  0.42079672  0.35015323    -0.12100
C250        C  0.72243305  0.44404844  0.36334052     0.18800
C251        C  0.74408857  0.44560272  0.37728290    -0.09100
C252        C  0.74748214  0.42400310  0.37786483    -0.02100
H253        H  0.68781027  0.41955748  0.33933025     0.05300
C254        C  0.71743168  0.46596748  0.36374167     0.20700
H255        H  0.76405433  0.42544779  0.38912204     0.10500
C256        C  0.69760975  0.46436272  0.38129793    -0.15500
C257        C  0.69283232  0.48507312  0.38327763     0.03500
C258        C  0.70814291  0.50793747  0.36742707    -0.10800
C259        C  0.72770742  0.50926101  0.34946513    -0.00800
C260        C  0.73227966  0.48844456  0.34734300    -0.06000
H261        H  0.68615225  0.44708232  0.39399030     0.06500
H262        H  0.73942442  0.52654099  0.33687340     0.09900
Br263      Br  0.76873288  0.47629444  0.39722929    -0.05700
Br264      Br  0.68256169  0.36868553  0.33083181    -0.02600
Br265      Br  0.66650742  0.48157712  0.40956003     0.00200
Br266      Br  0.75863428  0.49137878  0.32146802    -0.04200
C267        C  0.45088300  0.74914111  0.11960599    -0.11600
C268        C  0.44872904  0.76975579  0.10734365     0.03900
C269        C  0.46991314  0.79492876  0.10787071    -0.12100
C270        C  0.49339108  0.80007994  0.12024714     0.18800
C271        C  0.49571660  0.77965697  0.13231060    -0.09100
C272        C  0.47463125  0.75441695  0.13169457    -0.02100
H273        H  0.46812692  0.81061523  0.09843694     0.05300
C274        C  0.51499341  0.82702961  0.12095639     0.20700
H275        H  0.47662330  0.73897515  0.14145036     0.10500
C276        C  0.51330649  0.84494171  0.13902954    -0.15500
C277        C  0.53362087  0.87056820  0.14073472     0.03500
C278        C  0.55619491  0.87844220  0.12428231    -0.10800
C279        C  0.55757978  0.86052179  0.10583307    -0.00800
C280        C  0.53705319  0.83510601  0.10373409    -0.06000
H281        H  0.49621213  0.83882721  0.15215374     0.06500
H282        H  0.57460187  0.86643254  0.09264851     0.09900
Br283      Br  0.52685277  0.78551681  0.15107756    -0.05700
Br284      Br  0.41810346  0.76503437  0.08823840    -0.02600
Br285      Br  0.52997937  0.89330621  0.16709994     0.00200
Br286      Br  0.53955994  0.81241488  0.07633542    -0.04200
C287        C  0.58345527  0.18034881  0.37858131    -0.11600
C288        C  0.58458085  0.20126538  0.36297652     0.03900
C289        C  0.60693778  0.22566386  0.36399999    -0.12100
C290        C  0.62844524  0.22971499  0.38015151     0.18800
C291        C  0.62742845  0.20899982  0.39576592    -0.09100
C292        C  0.60511630  0.18452875  0.39475507    -0.02100
H293        H  0.60772744  0.24152039  0.35175122     0.05300
C294        C  0.65173633  0.25573686  0.38013206     0.20700
H295        H  0.60457361  0.16878381  0.40698576     0.10500
C296        C  0.65143622  0.27576458  0.39561034    -0.15500
C297        C  0.67259035  0.30101186  0.39480311     0.03500
C298        C  0.69446810  0.30652937  0.37803511    -0.10800
C299        C  0.69489441  0.28628322  0.36303438    -0.00800
C300        C  0.67369934  0.26108715  0.36381103    -0.06000
H301        H  0.63462806  0.27170260  0.40837156     0.06500
H302        H  0.71150630  0.29021539  0.34998662     0.09900
Br303      Br  0.65582020  0.21344148  0.41917797    -0.05700
Br304      Br  0.55713043  0.19753770  0.33827555    -0.02600
Br305      Br  0.67100811  0.32670181  0.41824095     0.00200
Br306      Br  0.67510110  0.23486405  0.34124838    -0.04200
C307        C  0.53908379  0.05223680  0.45344005    -0.11600
C308        C  0.55484526  0.04209297  0.44404951     0.03900
C309        C  0.56586236  0.03281466  0.46397518    -0.12100
C310        C  0.56155591  0.03335170  0.49339018     0.18800
C311        C  0.54600666  0.04361247  0.00286517    -0.09100
C312        C  0.53465059  0.05260050  0.48293368    -0.02100
H313        H  0.57771100  0.02492070  0.45646050     0.05300
C314        C  0.57374741  0.02335084  0.01367095     0.20700
H315        H  0.52293801  0.06060216  0.49056775     0.10500
C316        C  0.60076487  0.03676605  0.01685542    -0.15500
C317        C  0.61305881  0.02785162  0.03558896     0.03500
C318        C  0.59816516  0.00485714  0.05161135    -0.10800
C319        C  0.57108375  0.99134471  0.04798148    -0.00800
C320        C  0.55892802  0.00023450  0.02912602    -0.06000
H321        H  0.61233413  0.05446115  0.00491080     0.06500
H322        H  0.55922922  0.97353434  0.05962015     0.09900
Br323      Br  0.54086957  0.04701133  0.04281889    -0.05700
Br324      Br  0.56098250  0.03901816  0.40424448    -0.02600
Br325      Br  0.65000052  0.04894138  0.03914274     0.00200
Br326      Br  0.52211068  0.97952304  0.52433978    -0.04200
C327        C  0.54074897  0.05565201  0.29939570    -0.11600
C328        C  0.52814142  0.04263680  0.27379160     0.03900
C329        C  0.54036111  0.03364800  0.25511076    -0.12100
C330        C  0.56463481  0.03643648  0.26157499     0.18800
C331        C  0.57722004  0.04938873  0.28691330    -0.09100
C332        C  0.56543001  0.05897059  0.30526539    -0.02100
H333        H  0.53062460  0.02400048  0.23546523     0.05300
C334        C  0.57635409  0.02548393  0.24186875     0.20700
H335        H  0.57557491  0.06858894  0.32474256     0.10500
C336        C  0.60073428  0.04192436  0.22966747    -0.15500
C337        C  0.61259292  0.03215542  0.21155758     0.03500
C338        C  0.59961189  0.00555597  0.20451457    -0.10800
C339        C  0.57502970  0.98920773  0.21623231    -0.00800
C340        C  0.56355570  0.99881787  0.23508126    -0.06000
H341        H  0.61062808  0.06251883  0.23429865     0.06500
H342        H  0.56486673  0.96870645  0.21107094     0.09900
Br343      Br  0.60986198  0.05321106  0.29856223    -0.05700
Br344      Br  0.49427734  0.03588909  0.26256266    -0.02600
Br345      Br  0.64587079  0.05626635  0.19590809     0.00200
Br346      Br  0.53100611  0.97439987  0.25201140    -0.04200
C347        C  0.23008532  0.67104110  0.12908546    -0.11600
C348        C  0.25103089  0.69382817  0.11740284     0.03900
C349        C  0.27603008  0.69726642  0.11809943    -0.12100
C350        C  0.28063677  0.67838508  0.13015299     0.18800
C351        C  0.26000272  0.65601186  0.14235660    -0.09100
C352        C  0.23497124  0.65239936  0.14156190    -0.02100
H353        H  0.29190930  0.71451565  0.10862612     0.05300
C354        C  0.30700388  0.68208114  0.12922971     0.20700
H355        H  0.21926532  0.63498751  0.15096545     0.10500
C356        C  0.32600417  0.70012076  0.14764019    -0.15500
C357        C  0.35115521  0.70395739  0.14734880     0.03500
C358        C  0.35747984  0.68944345  0.12843312    -0.10800
C359        C  0.33837721  0.67137087  0.11006550    -0.00800
C360        C  0.31337775  0.66786440  0.11008281    -0.06000
H361        H  0.32117011  0.71111323  0.16242251     0.06500
H362        H  0.34312165  0.66047261  0.09504878     0.09900
Br363      Br  0.26525302  0.63012396  0.16070711    -0.05700
Br364      Br  0.24682306  0.72017215  0.09839008    -0.02600
Br365      Br  0.37561197  0.72826892  0.17419122     0.00200
Br366      Br  0.28886767  0.64433804  0.08276991    -0.04200
C367        C  0.91817319  0.39067034  0.37984256    -0.11600
C368        C  0.91192985  0.40987593  0.38785031     0.03900
C369        C  0.88602654  0.40390584  0.38816745    -0.12100
C370        C  0.86598462  0.37903407  0.38102437     0.18800
C371        C  0.87201079  0.35976890  0.37353034    -0.09100
C372        C  0.89780273  0.36562985  0.37310516    -0.02100
H373        H  0.88145115  0.41879627  0.39392910     0.05300
C374        C  0.83920236  0.37426043  0.37931875     0.20700
H375        H  0.90188185  0.35050297  0.36686617     0.10500
C376        C  0.83309606  0.38667957  0.35772198    -0.15500
C377        C  0.80801230  0.38265538  0.35489938     0.03500
C378        C  0.78842897  0.36574292  0.37390683    -0.10800
C379        C  0.79457237  0.35328876  0.39552493    -0.00800
C380        C  0.81980349  0.35769251  0.39860624    -0.06000
H381        H  0.84795842  0.39943723  0.34275414     0.06500
H382        H  0.77980426  0.34057791  0.41059266     0.09900
Br383      Br  0.84589821  0.32554957  0.36215378    -0.05700
Br384      Br  0.93723760  0.44432952  0.39952352    -0.02600
Br385      Br  0.80151022  0.39969754  0.32373246     0.00200
Br386      Br  0.82707313  0.34167636  0.43019481    -0.04200
C387        C  0.04905600  0.47851143  0.44991353    -0.11600
C388        C  0.05411930  0.50368540  0.44242636     0.03900
C389        C  0.06525696  0.52372908  0.46250202    -0.12100
C390        C  0.07168418  0.51930295  0.48992882     0.18800
C391        C  0.06674738  0.49438526  0.49750385    -0.09100
C392        C  0.05566923  0.47428960  0.47752090    -0.02100
H393        H  0.06907700  0.54293406  0.45666606     0.05300
C394        C  0.08257024  0.54076660  0.01066588     0.20700
H395        H  0.05184516  0.45518347  0.48379067     0.10500
C396        C  0.06602083  0.54824104  0.02335296    -0.15500
C397        C  0.07549608  0.56862181  0.04298205     0.03500
C398        C  0.10203559  0.58182955  0.05023472    -0.10800
C399        C  0.11857562  0.57421408  0.03753467    -0.00800
C400        C  0.10907342  0.55401778  0.01758518    -0.06000
H401        H  0.04561299  0.53803337  0.01808471     0.06500
H402        H  0.13900534  0.58433272  0.04269899     0.09900
Br403      Br  0.07400900  0.48674486  0.03516002    -0.05700
Br404      Br  0.04776513  0.51266291  0.40496221    -0.02600
Br405      Br  0.05090458  0.57638719  0.06028466     0.00200
Br406      Br  0.13300541  0.54578159  0.49952546    -0.04200
C407        C  0.10506760  0.58135395  0.20136706    -0.11600
C408        C  0.10485476  0.58598798  0.23093957     0.03900
C409        C  0.09471663  0.56517584  0.25012583    -0.12100
C410        C  0.08499340  0.53972344  0.24034276     0.18800
C411        C  0.08601203  0.53513695  0.21096016    -0.09100
C412        C  0.09612547  0.55592295  0.19173247    -0.02100
H413        H  0.09431336  0.56883301  0.27283891     0.05300
C414        C  0.07277834  0.51812905  0.26094987     0.20700
H415        H  0.09631446  0.55211265  0.16903020     0.10500
C416        C  0.04733685  0.50964419  0.26985344    -0.15500
C417        C  0.03488645  0.48908386  0.28920128     0.03500
C418        C  0.04806658  0.47663512  0.30000273    -0.10800
C419        C  0.07362747  0.48528869  0.29092870    -0.00800
C420        C  0.08604472  0.50595072  0.27174040    -0.06000
H421        H  0.03701893  0.51893871  0.26144102     0.06500
H422        H  0.08420806  0.47621465  0.29917382     0.09900
Br423      Br  0.07291865  0.50074540  0.19615273    -0.05700
Br424      Br  0.11937183  0.62038530  0.24635006    -0.02600
Br425      Br  0.99952103  0.47813795  0.29854504     0.00200
Br426      Br  0.12126133  0.51730815  0.26131781    -0.04200
C427        C  0.21772684  0.40235688  0.37378739    -0.11600
C428        C  0.19792895  0.38702318  0.35409735     0.03900
C429        C  0.17401392  0.38599163  0.35575722    -0.12100
C430        C  0.16935986  0.39990543  0.37681590     0.18800
C431        C  0.18870342  0.41456966  0.39697410    -0.09100
C432        C  0.21264057  0.41562832  0.39542391    -0.02100
H433        H  0.15898053  0.37440486  0.34042508     0.05300
C434        C  0.14455960  0.39970745  0.37666566     0.20700
H435        H  0.22756324  0.42741990  0.41076504     0.10500
C436        C  0.12515845  0.38406568  0.39620544    -0.15500
C437        C  0.10148546  0.38368492  0.39652706     0.03500
C438        C  0.09712149  0.39926188  0.37702850    -0.10800
C439        C  0.11647055  0.41449628  0.35715522    -0.00800
C440        C  0.14008355  0.41488662  0.35693972    -0.06000
H441        H  0.12843093  0.37202887  0.41113791     0.06500
H442        H  0.11342761  0.42659646  0.34209211     0.09900
Br443      Br  0.18356617  0.43426514  0.42613875    -0.05700
Br444      Br  0.20167413  0.36597260  0.32544507    -0.02600
Br445      Br  0.07540395  0.36039485  0.42276553     0.00200
Br446      Br  0.16600531  0.43701337  0.32993511    -0.04200
C447        C  0.37721561  0.43081029  0.04031296    -0.11600
C448        C  0.37189617  0.41073187  0.02059874     0.03900
C449        C  0.35470583  0.40604382  0.49800298    -0.12100
C450        C  0.34274008  0.42104901  0.49473923     0.18800
C451        C  0.34744040  0.44053202  0.01468596    -0.09100
C452        C  0.36441903  0.44516458  0.03731854    -0.02100
H453        H  0.35095763  0.39091059  0.48260547    -0.00100
C454        C  0.32676509  0.41742207  0.46937532     0.20700
H455        H  0.36829993  0.46075127  0.05211212     0.10500
C456        C  0.29989671  0.40103723  0.47079961    -0.15500
C457        C  0.28425242  0.39794156  0.44709244     0.03500
C458        C  0.29569560  0.41158842  0.42154546    -0.10800
C459        C  0.32270554  0.42788795  0.42037606    -0.00800
C460        C  0.33820238  0.43087080  0.44398839    -0.06000
H461        H  0.29111509  0.39056753  0.49041157     0.06500
H462        H  0.33188280  0.43859427  0.40100734     0.09900
Br463      Br  0.33205822  0.46208838  0.01097433    -0.05700
Br464      Br  0.38667643  0.38857294  0.02370197    -0.02600
Br465      Br  0.24789300  0.37366389  0.45053346     0.00200
Br466      Br  0.37488797  0.45375939  0.44079154    -0.04200
C467        C  0.37727746  0.43347505  0.20198236    -0.11600
C468        C  0.35175747  0.42846654  0.19660498     0.03900
C469        C  0.33490250  0.42396479  0.21943524    -0.12100
C470        C  0.34282978  0.42430184  0.24766662     0.18800
C471        C  0.36789530  0.42865020  0.25315856    -0.09100
C472        C  0.38484433  0.43312022  0.23042521    -0.02100
H473        H  0.31545696  0.42019486  0.21517668     0.05300
C474        C  0.32455633  0.41982640  0.27110717     0.20700
H475        H  0.40425483  0.43705651  0.23514678     0.10500
C476        C  0.31399246  0.39647388  0.28638063    -0.15500
C477        C  0.29777795  0.39220871  0.30975286     0.03500
C478        C  0.29174530  0.41135470  0.31785165    -0.10800
C479        C  0.30135032  0.43424210  0.30185731    -0.00800
C480        C  0.31780218  0.43864149  0.27859364    -0.06000
H481        H  0.31883352  0.38179159  0.28044902     0.06500
H482        H  0.29710051  0.44921827  0.30833542     0.09900
Br483      Br  0.38022597  0.42985805  0.29140245    -0.05700
Br484      Br  0.33794029  0.42655361  0.15892389    -0.02600
Br485      Br  0.28449355  0.36012068  0.33028587     0.00200
Br486      Br  0.33206421  0.47128663  0.25901609    -0.04200
C487        C  0.04821010  0.65675598  0.12373198    -0.11600
C488        C  0.03139874  0.64889472  0.09981221     0.03900
C489        C  0.00931090  0.65147083  0.10033227    -0.12100
C490        C  0.00355982  0.66202784  0.12412878     0.18800
C491        C  0.02032757  0.67007682  0.14788710    -0.09100
C492        C  0.04231464  0.66730604  0.14758269    -0.02100
H493        H  0.99622550  0.64473855  0.08220121     0.05300
C494        C  0.97901590  0.66264874  0.12446928     0.20700
H495        H  0.05507427  0.67380657  0.16598993     0.10500
C496        C  0.95971734  0.64685399  0.14403500    -0.15500
C497        C  0.93567216  0.64562519  0.14417702     0.03500
C498        C  0.93055095  0.66048857  0.12437988    -0.10800
C499        C  0.94981857  0.67610701  0.10457975    -0.00800
C500        C  0.97391091  0.67732909  0.10453660    -0.06000
H501        H  0.96320825  0.63494518  0.15889612     0.06500
H502        H  0.94622896  0.68763306  0.08927212     0.09900
Br503      Br  0.01443826  0.68565524  0.18088799    -0.05700
Br504      Br  0.03629443  0.63307554  0.06636084    -0.02600
Br505      Br  0.91014091  0.62155725  0.17034560     0.00200
Br506      Br  0.99939087  0.69977967  0.07733800    -0.04200
C507        C  0.76795070  0.62423167  0.28995631    -0.11600
C508        C  0.76014943  0.61449448  0.26203799     0.03900
C509        C  0.77868127  0.62162657  0.24046717    -0.12100
C510        C  0.80495323  0.63840299  0.24630842     0.18800
C511        C  0.81275036  0.64840678  0.27405831    -0.09100
C512        C  0.79427475  0.64101693  0.29578298    -0.02100
H513        H  0.77265040  0.61386744  0.21912707     0.05300
C514        C  0.82374794  0.64542608  0.22287574     0.20700
H515        H  0.80040442  0.64861587  0.31716631     0.10500
C516        C  0.82483381  0.66272952  0.20190017    -0.15500
C517        C  0.84082956  0.66829399  0.17803240     0.03500
C518        C  0.85602612  0.65628659  0.17489766    -0.10800
C519        C  0.85559995  0.63969357  0.19654016    -0.00800
C520        C  0.83942904  0.63402216  0.22031537    -0.06000
H521        H  0.81288078  0.67166284  0.20394378     0.06500
H522        H  0.86688444  0.63006379  0.19429498     0.09900
Br523      Br  0.84822339  0.67268147  0.28288849    -0.05700
Br524      Br  0.72477237  0.59007884  0.25265765    -0.02600
Br525      Br  0.84141146  0.69282890  0.15086557     0.00200
Br526      Br  0.83802855  0.60929780  0.24769931    -0.04200
C527        C  0.85587271  0.65351834  0.07097490    -0.11600
C528        C  0.86652032  0.66955927  0.04678486     0.03900
C529        C  0.85102016  0.66550927  0.02256919    -0.12100
C530        C  0.82500137  0.64568187  0.02226131     0.18800
C531        C  0.81460706  0.62939896  0.04621913    -0.09100
C532        C  0.82994794  0.63353014  0.07032921    -0.02100
H533        H  0.85912391  0.67806867  0.00413215     0.05300
C534        C  0.80878717  0.64168448  0.99680169     0.20700
H535        H  0.82157048  0.62094892  0.08871575     0.10500
C536        C  0.81120868  0.62860659  0.47320688    -0.15500
C537        C  0.79392028  0.62130392  0.45020021     0.03500
C538        C  0.77347160  0.62711313  0.45067660    -0.10800
C539        C  0.77203094  0.64134942  0.47402652    -0.00800
C540        C  0.78945221  0.64864385  0.99684498    -0.06000
H541        H  0.82614339  0.62329543  0.47314228     0.06500
H542        H  0.75702143  0.64651938  0.47491705     0.09900
Br543      Br  0.77964396  0.60097687  0.04683357    -0.05700
Br544      Br  0.90131076  0.69820647  0.04654829    -0.02600
Br545      Br  0.79948848  0.60272785  0.41991733     0.00200
Br546      Br  0.78583224  0.66764197  0.02798107    -0.04200
C547        C  0.69958188  0.67931653  0.37000102    -0.11600
C548        C  0.68177857  0.68248360  0.35292559     0.03900
C549        C  0.68193814  0.70611835  0.35317571    -0.12100
C550        C  0.69975272  0.72687261  0.37003580     0.18800
C551        C  0.71777498  0.72388114  0.38669601    -0.09100
C552        C  0.71744670  0.70018005  0.38678058    -0.02100
H553        H  0.66776701  0.70816919  0.34061108     0.05300
C554        C  0.69796742  0.75077937  0.37168877     0.20700
H555        H  0.73137131  0.69811757  0.39979700     0.10500
C556        C  0.68413617  0.75352510  0.39429544    -0.15500
C557        C  0.68173301  0.77567820  0.39681714     0.03500
C558        C  0.69345516  0.79587967  0.37635567    -0.10800
C559        C  0.70706596  0.79279415  0.35344329    -0.00800
C560        C  0.70942797  0.77054256  0.35106742    -0.06000
H561        H  0.67495331  0.73815703  0.41002434     0.06500
H562        H  0.71630745  0.80795369  0.33751919     0.09900
Br563      Br  0.74328477  0.75177767  0.40940709    -0.05700
Br564      Br  0.65559673  0.65466834  0.33056493    -0.02600
Br565      Br  0.66076070  0.77585349  0.42780402     0.00200
Br566      Br  0.72888507  0.76805618  0.31976112    -0.04200
C567        C  0.69130936  0.86512715  0.43343252    -0.11600
C568        C  0.66865195  0.85399398  0.45023014     0.03900
C569        C  0.66650570  0.86786785  0.47326062    -0.12100
C570        C  0.68644297  0.89306837  0.47944441     0.18800
C571        C  0.70923849  0.90405342  0.46298420    -0.09100
C572        C  0.71149720  0.89010435  0.44013139    -0.02100
H573        H  0.64876558  0.85941699  0.48565093     0.05300
C574        C  0.68265152  0.90792798  0.50242844     0.20700
H575        H  0.72872728  0.89914417  0.42689016     0.10500
C576        C  0.68617570  0.90317927  0.03093919    -0.15500
C577        C  0.68182953  0.91618250  0.05333036     0.03500
C578        C  0.67341377  0.93415886  0.04731221    -0.10800
C579        C  0.67066442  0.93939199  0.01856245    -0.00800
C580        C  0.67509975  0.92637614  0.49623845    -0.06000
H581        H  0.69232383  0.88928399  0.03577304     0.06500
H582        H  0.66411435  0.95291751  0.01341256     0.09900
Br583      Br  0.73726709  0.93837799  0.47039342    -0.05700
Br584      Br  0.63894442  0.82143459  0.44052660    -0.02600
Br585      Br  0.68878639  0.90911510  0.09143720     0.00200
Br586      Br  0.66957460  0.93357786  0.45764719    -0.04200
C587        C  0.67059468  0.93127793  0.20901917    -0.11600
C588        C  0.69107368  0.94536146  0.22848490     0.03900
C589        C  0.69593344  0.93229386  0.25048221    -0.12100
C590        C  0.68071304  0.90529599  0.25362514     0.18800
C591        C  0.66042120  0.89121981  0.23419939    -0.09100
C592        C  0.65577157  0.90413904  0.21197937    -0.02100
H593        H  0.71138836  0.94330285  0.26556736     0.05300
C594        C  0.68423063  0.89270371  0.27925283     0.20700
H595        H  0.63975064  0.89294505  0.19760279     0.10500
C596        C  0.67639160  0.89736081  0.30568621    -0.15500
C597        C  0.67819782  0.88542565  0.33062094     0.03500
C598        C  0.68836339  0.86827921  0.32950756    -0.10800
C599        C  0.69636015  0.86376805  0.30279196    -0.00800
C600        C  0.69448468  0.87590940  0.27784534    -0.06000
H601        H  0.66830486  0.91012006  0.30682291     0.06500
H602        H  0.70439868  0.85099698  0.30129243     0.09900
Br603      Br  0.63718468  0.85465530  0.23853657    -0.05700
Br604      Br  0.71349456  0.98222123  0.22592611    -0.02600
Br605      Br  0.66480866  0.89291659  0.36459315     0.00200
Br606      Br  0.70674750  0.86960551  0.24248823    -0.04200
C607        C  0.72567522  0.05909640  0.12826889    -0.11600
C608        C  0.73815405  0.07306729  0.15353044     0.03900
C609        C  0.76153423  0.09657476  0.15156039    -0.12100
C610        C  0.77297039  0.10679811  0.12500492     0.18800
C611        C  0.76059855  0.09332919  0.09991431    -0.09100
C612        C  0.73727395  0.06982750  0.10166369    -0.02100
H613        H  0.77106460  0.10689492  0.17097601     0.05300
C614        C  0.79840815  0.13091096  0.12410772     0.20700
H615        H  0.72826961  0.05990066  0.08190834     0.10500
C616        C  0.82043582  0.12949472  0.11635999    -0.15500
C617        C  0.84501432  0.15163907  0.11675927     0.03500
C618        C  0.84781285  0.17555080  0.12538449    -0.10800
C619        C  0.82582663  0.17708962  0.13287077    -0.00800
C620        C  0.80117527  0.15501833  0.13204582    -0.06000
H621        H  0.81851021  0.11102117  0.11035385     0.06500
H622        H  0.82784642  0.19552554  0.13922611     0.09900
Br623      Br  0.77458688  0.10660215  0.06272163    -0.05700
Br624      Br  0.72502311  0.06198236  0.19161570    -0.02600
Br625      Br  0.87433430  0.14819341  0.10653308     0.00200
Br626      Br  0.77180923  0.15879405  0.14107378    -0.04200
C627        C  0.91885740  0.24232251  0.18270049    -0.11600
C628        C  0.94555992  0.25340477  0.18838300     0.03900
C629        C  0.95634003  0.26930300  0.21231497    -0.12100
C630        C  0.94085156  0.27424435  0.23089193     0.18800
C631        C  0.91397496  0.26213198  0.22607212    -0.09100
C632        C  0.90314565  0.24610471  0.20221587    -0.02100
H633        H  0.97699956  0.27838420  0.21607967     0.05300
C634        C  0.95339546  0.29381768  0.25360485     0.20700
H635        H  0.88265482  0.23792331  0.19794644     0.10500
C636        C  0.96735760  0.32005712  0.24587085    -0.15500
C637        C  0.97878493  0.33941625  0.26667205     0.03500
C638        C  0.97622287  0.33251000  0.29591995    -0.10800
C639        C  0.96247379  0.30613793  0.30352141    -0.00800
C640        C  0.95134412  0.28683447  0.28261729    -0.06000
H641        H  0.96894835  0.32551051  0.22349323     0.06500
H642        H  0.96058045  0.30048757  0.32584537     0.09900
Br643      Br  0.89170545  0.26873238  0.24999041    -0.05700
Br644      Br  0.96811126  0.24736352  0.16425816    -0.02600
Br645      Br  0.99595121  0.37479508  0.25371627     0.00200
Br646      Br  0.93406805  0.25122931  0.29449938    -0.04200
C647        C  0.97543249  0.33460116  0.45981305    -0.11600
C648        C  0.94847933  0.32103103  0.46522735     0.03900
C649        C  0.93866424  0.30390992  0.48836687    -0.12100
C650        C  0.95523214  0.30016585  0.00648687     0.18800
C651        C  0.98202739  0.31351539  0.00113618    -0.09100
C652        C  0.99195131  0.33068082  0.47802696    -0.02100
H653        H  0.91807545  0.29393866  0.49268988     0.05300
C654        C  0.94422572  0.28309724  0.03158209     0.20700
H655        H  0.01262683  0.34088419  0.47418899     0.10500
C656        C  0.93107685  0.25611264  0.02793828    -0.15500
C657        C  0.91991145  0.23945005  0.05134870     0.03500
C658        C  0.92165741  0.24991620  0.07894368    -0.10800
C659        C  0.93511232  0.27703242  0.08235510    -0.00800
C660        C  0.94620431  0.29355196  0.05902153    -0.06000
H661        H  0.92965739  0.24800833  0.00680216     0.06500
H662        H  0.93651723  0.28556071  0.10323288     0.09900
Br663      Br  0.00564733  0.30874296  0.02481367    -0.05700
Br664      Br  0.92419630  0.32648079  0.44346525    -0.02600
Br665      Br  0.90396456  0.20287023  0.04435691     0.00200
Br666      Br  0.96306883  0.33028137  0.06552767    -0.04200
C667        C  0.41236913  0.00157303  0.37580041    -0.11600
C668        C  0.39324391  0.99540468  0.39702558     0.03900
C669        C  0.36981098  0.97204467  0.39542073    -0.12100
C670        C  0.36485436  0.95464529  0.37290686     0.18800
C671        C  0.38346826  0.96099887  0.35128829    -0.09100
C672        C  0.40699105  0.98428961  0.35286548    -0.02100
H673        H  0.35524791  0.96742895  0.41179083     0.05300
C674        C  0.34012172  0.92995648  0.37254386     0.20700
H675        H  0.42129594  0.98872428  0.33624787     0.10500
C676        C  0.32114087  0.92626682  0.35242858    -0.15500
C677        C  0.29710686  0.90343664  0.35227268     0.03500
C678        C  0.29184285  0.88381028  0.37263423    -0.10800
C679        C  0.31096414  0.88773220  0.39279184    -0.00800
C680        C  0.33493793  0.91050148  0.39282054    -0.06000
H681        H  0.32493526  0.94140253  0.33707545     0.06500
H682        H  0.30744378  0.87288424  0.40839191     0.09900
Br683      Br  0.37791501  0.93812580  0.31975662    -0.05700
Br684      Br  0.39693986  0.01852503  0.42768749    -0.02600
Br685      Br  0.27196946  0.90126649  0.32498251     0.00200
Br686      Br  0.36026997  0.91389881  0.42048097    -0.04200
C687        C  0.17172751  0.72376706  0.04432715    -0.11600
C688        C  0.18671375  0.75079336  0.04896903     0.03900
C689        C  0.19690665  0.76757044  0.02564197    -0.12100
C690        C  0.19265594  0.75789938  0.49769104     0.18800
C691        C  0.17849328  0.73098212  0.49299084    -0.09100
C692        C  0.16785304  0.71418062  0.01620553    -0.02100
H693        H  0.20802284  0.78827834  0.02926829     0.05300
C694        C  0.20350457  0.77623138  0.47373115     0.20700
H695        H  0.15699376  0.69350263  0.01228034     0.10500
C696        C  0.23032262  0.78950148  0.46942900    -0.15500
C697        C  0.24123597  0.80600133  0.44598839     0.03500
C698        C  0.22504260  0.80934051  0.42644953    -0.10800
C699        C  0.19824112  0.79664039  0.43141743    -0.00800
C700        C  0.18743866  0.78039099  0.45503592    -0.06000
H701        H  0.24272978  0.78639622  0.48394244     0.06500
H702        H  0.18561771  0.79920290  0.41669286     0.09900
Br703      Br  0.17417853  0.71626857  0.45544141    -0.05700
Br704      Br  0.19313213  0.76633858  0.08622245    -0.02600
Br705      Br  0.27791862  0.82130359  0.44064274     0.00200
Br706      Br  0.15077232  0.76445774  0.46110139    -0.04200
C707        C  0.21973568  0.81108969  0.32278955    -0.11600
C708        C  0.19282485  0.79948808  0.31845116     0.03900
C709        C  0.18147478  0.78357597  0.29468150    -0.12100
C710        C  0.19660699  0.77880393  0.27538311     0.18800
C711        C  0.22358468  0.79104017  0.27919721    -0.09100
C712        C  0.23499361  0.80729282  0.30267531    -0.02100
H713        H  0.16073464  0.77434522  0.29162438     0.05300
C714        C  0.18384253  0.75990909  0.25228067     0.20700
H715        H  0.25564465  0.81586841  0.30604591     0.10500
C716        C  0.18565183  0.76873107  0.22414362    -0.15500
C717        C  0.17516675  0.75112737  0.20154563     0.03500
C718        C  0.16292485  0.72424752  0.20707710    -0.10800
C719        C  0.16015631  0.71552525  0.23546845    -0.00800
C720        C  0.17054312  0.73314262  0.25802056    -0.06000
H721        H  0.19540983  0.78933261  0.21978642     0.06500
H722        H  0.15075561  0.69497480  0.24006219     0.09900
Br723      Br  0.24527561  0.78449935  0.25422744    -0.05700
Br724      Br  0.17083882  0.80491253  0.34414533    -0.02600
Br725      Br  0.17703830  0.76492064  0.16396062     0.00200
Br726      Br  0.16731731  0.71979728  0.29612500    -0.04200
C727        C  0.42789154  0.24695495  0.12434772    -0.11600
C728        C  0.41295073  0.25278914  0.10548410     0.03900
C729        C  0.41644453  0.27787816  0.10474038    -0.12100
C730        C  0.43492010  0.29751943  0.12222894     0.18800
C731        C  0.45016796  0.29192649  0.14063340    -0.09100
C732        C  0.44639344  0.26677002  0.14182244    -0.02100
H733        H  0.40453342  0.28205576  0.09064894     0.05300
C734        C  0.43719576  0.32341317  0.12202102     0.20700
H735        H  0.45846260  0.26285271  0.15595345     0.10500
C736        C  0.42547615  0.32990988  0.14401346    -0.15500
C737        C  0.42697269  0.35414477  0.14461361     0.03500
C738        C  0.44079370  0.37259810  0.12301538    -0.10800
C739        C  0.45221836  0.36579941  0.10077602    -0.00800
C740        C  0.45046909  0.34144761  0.10013294    -0.06000
H741        H  0.41478191  0.31585318  0.16062428     0.06500
H742        H  0.46278296  0.37958126  0.08390049     0.09900
Br743      Br  0.47701574  0.31834912  0.16364620    -0.05700
Br744      Br  0.38658179  0.22719980  0.08135733    -0.02600
Br745      Br  0.40801615  0.35986453  0.17422576     0.00200
Br746      Br  0.46677827  0.33373936  0.06926428    -0.04200
C747        C  0.43346569  0.17887121  0.17862102    -0.11600
C748        C  0.41800457  0.17434753  0.20318962     0.03900
C749        C  0.42260097  0.16368822  0.22781658    -0.12100
C750        C  0.44256847  0.15763355  0.22828691     0.18800
C751        C  0.45819195  0.16255657  0.20392658    -0.09100
C752        C  0.45346795  0.17289344  0.17936907    -0.02100
H753        H  0.41041485  0.15979997  0.24644900     0.05300
C754        C  0.44689220  0.14564137  0.25384130     0.20700
H755        H  0.46560549  0.17641030  0.16074985     0.10500
C756        C  0.43850389  0.11906730  0.25346432    -0.15500
C757        C  0.44574548  0.10762148  0.27506333     0.03500
C758        C  0.46215458  0.12310634  0.29758086    -0.10800
C759        C  0.46929565  0.14955331  0.29851538    -0.00800
C760        C  0.46176527  0.16078313  0.27698075    -0.06000
H761        H  0.42680375  0.10727901  0.23574579     0.06500
H762        H  0.48149928  0.16188639  0.31562624     0.09900
Br763      Br  0.48646022  0.15570747  0.20338254    -0.05700
Br764      Br  0.38939459  0.18063300  0.20351151    -0.02600
Br765      Br  0.43209387  0.07082407  0.27205782     0.00200
Br766      Br  0.47336533  0.19716376  0.27915622    -0.04200
C767        C  0.46129643  0.12362313  0.45464209    -0.11600
C768        C  0.47021103  0.15060160  0.45669607     0.03900
C769        C  0.46121742  0.15996540  0.47870445    -0.12100
C770        C  0.44335698  0.14312519  0.99879545     0.18800
C771        C  0.43312297  0.11625657  0.99581712    -0.09100
C772        C  0.44220333  0.10669795  0.47400632    -0.02100
H773        H  0.46913390  0.18067800  0.48100502     0.05300
C774        C  0.43867693  0.15421601  0.02482163     0.20700
H775        H  0.43460383  0.08598442  0.47252627     0.10500
C776        C  0.41576172  0.15522314  0.02793297    -0.15500
C777        C  0.41139001  0.16580315  0.05271167     0.03500
C778        C  0.43016211  0.17554294  0.07458524    -0.10800
C779        C  0.45291313  0.17429957  0.07142692    -0.00800
C780        C  0.45731809  0.16387321  0.04677063    -0.06000
H781        H  0.40125852  0.14760168  0.01123812     0.06500
H782        H  0.46739838  0.18162743  0.08815590     0.09900
Br783      Br  0.40773903  0.09212394  0.02199687    -0.05700
Br784      Br  0.49611980  0.17641595  0.43206558    -0.02600
Br785      Br  0.37893644  0.16489742  0.05658987     0.00200
Br786      Br  0.48893087  0.16278184  0.54419684    -0.04200
C787        C  0.42582120  0.22109295  0.62528556     0.80600
N788        N  0.42545024  0.20889432  0.60050968    -0.77700
C789        C  0.42677599  0.18675670  0.60116030     0.83100
N790        N  0.42901028  0.17713655  0.62662050    -0.77600
C791        C  0.42896522  0.18880982  0.65151857     0.83200
N792        N  0.42780010  0.21106112  0.65077849    -0.79300
C793        C  0.26697925  0.85913386  0.87338097     0.80600
N794        N  0.25729331  0.84690016  0.89875068    -0.77700
C795        C  0.23500409  0.82370564  0.89950077     0.83100
N796        N  0.22234429  0.81281444  0.87479593    -0.77600
C797        C  0.23195383  0.82472405  0.84940972     0.83200
N798        N  0.25451723  0.84762152  0.84871181    -0.79300
C799        C  0.87344751  0.19892537  0.62715704     0.80600
N800        N  0.88419964  0.20848067  0.65316452    -0.77700
C801        C  0.90782964  0.23019790  0.65489021     0.83100
N802        N  0.92001907  0.24278718  0.63060210    -0.77600
C803        C  0.90930696  0.23372252  0.60454215     0.83200
N804        N  0.88588640  0.21169069  0.60290330    -0.79300
C805        C  0.69215959  0.82024156  0.87836017     0.80600
N806        N  0.69138681  0.83261108  0.85402920    -0.77700
C807        C  0.69080097  0.85521063  0.85561769     0.83100
N808        N  0.69179847  0.86557928  0.88164241    -0.77600
C809        C  0.69226976  0.85354253  0.90594383     0.83200
N810        N  0.69238068  0.83077777  0.90436745    -0.79300
C811        C  0.90542478  0.65988159  0.62375595     0.80600
N812        N  0.89345034  0.65964925  0.64862865    -0.77700
C813        C  0.87016309  0.65860020  0.64818679     0.83100
N814        N  0.85861098  0.65708334  0.62278501    -0.77600
C815        C  0.87036453  0.65757499  0.59782147     0.83200
N816        N  0.89386610  0.65900477  0.59828449    -0.79300
C817        C  0.24371505  0.40506089  0.87220077     0.80600
N818        N  0.25513361  0.40697804  0.84641504    -0.77700
C819        C  0.27897165  0.40938997  0.84519287     0.83100
N820        N  0.29157635  0.41040292  0.86962429    -0.77600
C821        C  0.28064102  0.40895193  0.89544371     0.83200
N822        N  0.25673106  0.40646189  0.89667727    -0.79300
O823        O  0.97408426  0.34805477  0.84191460    -0.78100
C824        C  0.98672423  0.35334120  0.93601969     0.83000
O825        O  0.96439746  0.41852084  0.87737057    -0.79200
O826        O  0.04284980  0.43841281  0.93238159    -0.80700
O827        O  0.06336700  0.40166795  0.85316184    -0.80500
O828        O  0.00870998  0.37270639  0.81515004    -0.79100
Zn829      Zn  0.97821496  0.36933246  0.87705647     1.55700
O830        O  0.06277486  0.40081770  0.90087600    -0.80500
Cd831      Cd  0.03080148  0.40348438  0.84203592     1.59700
Cd832      Cd  0.00396300  0.43166662  0.87576366     1.59600
O833        O  0.04256082  0.43749301  0.81970483    -0.80500
O834        O  0.01052512  0.40179220  0.87660966    -1.91000
Cd835      Cd  0.03066892  0.40368781  0.91149005     1.59900
O836        O  0.02052397  0.45460520  0.83970590    -0.80500
O837        O  0.00850184  0.37387265  0.93957731    -0.79100
C838        C  0.94517387  0.39548832  0.87842764     0.83400
C839        C  0.98696519  0.35217875  0.81884381     0.83100
O840        O  0.97430904  0.34873559  0.91259392    -0.78100
C841        C  0.07297859  0.40041771  0.87707060     0.83900
O842        O  0.94846873  0.37592964  0.87804732    -0.78200
C843        C  0.03614521  0.45496513  0.82079100     0.84000
C844        C  0.03734358  0.45645405  0.92966400     0.84300
O845        O  0.02199717  0.45584335  0.91027354    -0.80600
O846        O  0.17257575  0.70969393  0.59162095    -0.78100
C847        C  0.15434827  0.70498388  0.68389306     0.83000
O848        O  0.18457623  0.64270570  0.62598228    -0.79200
O849        O  0.10622248  0.61895234  0.68262152    -0.80700
O850        O  0.08390876  0.65654034  0.60103643    -0.80500
O851        O  0.13903750  0.68422237  0.56395889    -0.79100
Zn852      Zn  0.16780476  0.68941479  0.62750799     1.55700
O853        O  0.08063336  0.65202952  0.64838198    -0.80500
Cd854      Cd  0.11646692  0.65420186  0.59123794     1.59700
Cd855      Cd  0.14486118  0.62774852  0.62518715     1.59600
O856        O  0.10529812  0.62005561  0.56975056    -0.80500
O857        O  0.13629194  0.65619645  0.62620546    -1.91000
Cd858      Cd  0.11434852  0.65213210  0.66013282     1.59900
O859        O  0.12919834  0.60476029  0.58928702    -0.80500
O860        O  0.13379586  0.68321224  0.68732992    -0.79100
C861        C  0.20313094  0.66600099  0.62828819     0.83400
C862        C  0.16042670  0.70504895  0.56802459     0.83100
O863        O  0.16830286  0.71013516  0.66156172    -0.78100
C864        C  0.07208602  0.65478428  0.62435207     0.83900
O865        O  0.19899343  0.68497074  0.63001093    -0.78200
C866        C  0.11277290  0.60340280  0.57087326     0.84000
C867        C  0.11392822  0.60250392  0.68026287     0.84300
O868        O  0.12876464  0.60349696  0.66004887    -0.80600
O869        O  0.48341726  0.12647427  0.84193489    -0.78100
C870        C  0.47189427  0.11280331  0.93330585     0.83000
O871        O  0.56306864  0.13432907  0.87912615    -0.79200
O872        O  0.50480610  0.05882607  0.93664668    -0.80700
O873        O  0.44853003  0.03617527  0.85285975    -0.80500
O874        O  0.47127717  0.09093308  0.81631497    -0.79100
Zn875      Zn  0.50103361  0.12238223  0.87676928     1.55700
O876        O  0.44794682  0.03585334  0.90058839    -0.80500
Cd877      Cd  0.48213787  0.06961325  0.84211681     1.59700
Cd878      Cd  0.53613354  0.09508522  0.87763545     1.59600
O879        O  0.50545765  0.05976256  0.81842818    -0.80500
O880        O  0.50013254  0.08933431  0.87746207    -1.91000
Cd881      Cd  0.48154721  0.06923808  0.91267195     1.59900
O882        O  0.54301987  0.07933022  0.84148963    -0.80500
O883        O  0.47015259  0.09080306  0.93783384    -0.79100
C884        C  0.56020536  0.15418763  0.87827940     0.83400
C885        C  0.47265340  0.11281331  0.81980194     0.83100
O886        O  0.48269984  0.12579229  0.91087093    -0.78100
C887        C  0.43764832  0.02588442  0.87654718     0.83900
O888        O  0.53784576  0.15204426  0.87736752    -0.78200
C889        C  0.52903190  0.06549656  0.82074610     0.84000
C890        C  0.52791265  0.06317044  0.93300478     0.84300
O891        O  0.54187216  0.07678743  0.91217074    -0.80600
O892        O  0.65539901  0.93284616  0.59300474    -0.78100
C893        C  0.66338917  0.94384888  0.68606838     0.83000
O894        O  0.57553127  0.92434959  0.62763402    -0.79200
O895        O  0.63411724  0.00026519  0.68632758    -0.80700
O896        O  0.69015384  0.02358465  0.60461132    -0.80500
O897        O  0.66684097  0.96783756  0.56630078    -0.79100
Zn898      Zn  0.63769980  0.93654504  0.62764178     1.55700
O899        O  0.69083421  0.02268052  0.65218344    -0.80500
Cd900      Cd  0.65677515  0.98970378  0.59289046     1.59700
Cd901      Cd  0.60237489  0.96354383  0.62839933     1.59600
O902        O  0.63318886  0.99983892  0.56967062    -0.80500
O903        O  0.63857029  0.96954109  0.62809927    -1.91000
Cd904      Cd  0.65706406  0.98913268  0.66345047     1.59900
O905        O  0.59577284  0.98072770  0.59326111    -0.80500
O906        O  0.66621426  0.96638567  0.68984349    -0.79100
C907        C  0.57877592  0.90477686  0.62614704     0.83400
C908        C  0.66520347  0.94581260  0.57024718     0.83100
O909        O  0.65335388  0.93108012  0.66321929    -0.78100
C910        C  0.70087763  0.03375304  0.62848517     0.83900
O911        O  0.60122895  0.90720976  0.62568220    -0.78200
C912        C  0.60979138  0.99467759  0.57260008     0.84000
C913        C  0.61053399  0.99466298  0.68395855     0.84300
O914        O  0.59588113  0.97999426  0.66411880    -0.80600
C915        C  0.71673609  0.33307500  0.87524615     0.80600
N916        N  0.74125816  0.33705698  0.87559084    -0.77700
C917        C  0.76180373  0.36131872  0.87222415     0.83100
N918        N  0.75769559  0.38162293  0.86865200    -0.77600
C919        C  0.73328166  0.37786654  0.86785826     0.83200
N920        N  0.71287959  0.35353781  0.87132228    -0.79300
C921        C  0.42874325  0.72234247  0.62094300     0.80600
N922        N  0.43273520  0.70176966  0.61976272    -0.77700
C923        C  0.41244870  0.67716015  0.62150974     0.83100
N924        N  0.38805841  0.67315509  0.62478897    -0.77600
C925        C  0.38396791  0.69363801  0.62636779     0.83200
N926        N  0.40434067  0.71808177  0.62444532    -0.79300
O927        O  0.39343626  0.44833422  0.58597432    -0.78100
C928        C  0.39674214  0.44055138  0.67892888     0.83000
O929        O  0.46482477  0.52731578  0.61909957    -0.79200
O930        O  0.48158870  0.46855394  0.67849849    -0.80700
O931        O  0.44411680  0.40911649  0.59860378    -0.80500
O932        O  0.41642701  0.43578587  0.55980947    -0.79100
Zn933      Zn  0.41468242  0.46561977  0.62057678     1.55700
O934        O  0.44460182  0.41009599  0.64628405    -0.80500
Cd935      Cd  0.44708397  0.44398906  0.58680014     1.59700
Cd936      Cd  0.47603016  0.49943409  0.62001058     1.59600
O937        O  0.48141793  0.46532805  0.56454165    -0.80500
O938        O  0.44593806  0.46351785  0.62100940    -1.91000
Cd939      Cd  0.44734829  0.44544168  0.65641814     1.59900
O940        O  0.49898854  0.50410756  0.58520624    -0.80500
O941        O  0.41652788  0.43799475  0.68307096    -0.79100
C942        C  0.44229226  0.52474666  0.61944551     0.83400
C943        C  0.39656942  0.43826584  0.56338321     0.83100
O944        O  0.39381888  0.45000490  0.65578504    -0.78100
C945        C  0.44322515  0.39865377  0.62270584     0.83900
O946        O  0.42211957  0.50240926  0.61976578    -0.78200
C947        C  0.49937071  0.48891039  0.56624346     0.84000
C948        C  0.49956870  0.49210352  0.67557739     0.84300
O949        O  0.49940163  0.50607176  0.65505909    -0.80600
O950        O  0.75362708  0.60757901  0.83625666    -0.78100
C951        C  0.75299298  0.61807374  0.92820038     0.83000
O952        O  0.68229531  0.52813818  0.87144296    -0.79200
O953        O  0.66872570  0.58934555  0.93133734    -0.80700
O954        O  0.69847222  0.64310928  0.84728027    -0.80500
O955        O  0.72865070  0.61764670  0.80997463    -0.79100
Zn956      Zn  0.73275858  0.59013281  0.87123437     1.55700
O957        O  0.70150456  0.64548530  0.89489554    -0.80500
Cd958      Cd  0.69824749  0.60915612  0.83721860     1.59700
Cd959      Cd  0.67059762  0.55559663  0.87365727     1.59600
O960        O  0.66445853  0.58592143  0.81525093    -0.80500
O961        O  0.70101444  0.59159246  0.87227114    -1.91000
Cd962      Cd  0.70132697  0.61168162  0.90668748     1.59900
O963        O  0.64523079  0.54911272  0.84019016    -0.80500
O964        O  0.73374774  0.62163494  0.93174493    -0.79100
C965        C  0.70489359  0.53093087  0.86966412     0.83400
C966        C  0.74912284  0.61623845  0.81337636     0.83100
O967        O  0.75466981  0.60661646  0.90603393    -0.78100
C968        C  0.69982098  0.65459583  0.87076464     0.83900
O969        O  0.72510321  0.55326500  0.86933537    -0.78200
C970        C  0.64565435  0.56305188  0.81925253     0.84000
C971        C  0.65088082  0.56563797  0.93037262     0.84300
O972        O  0.64989295  0.55028128  0.91076480    -0.80600
C973        C  0.62407178  0.55245425  0.79852495    -0.11600
C974        C  0.59801757  0.53682952  0.80701125     0.03900
C975        C  0.57837120  0.52740780  0.78642446    -0.12100
C976        C  0.58415183  0.53280855  0.75724551     0.18800
C977        C  0.61015647  0.54870518  0.74881464    -0.09100
C978        C  0.62976380  0.55847340  0.76941652    -0.02100
H979        H  0.55842246  0.51586745  0.79322792     0.05300
C980        C  0.56271171  0.52223710  0.73617036     0.20700
H981        H  0.64965400  0.57044447  0.76256218     0.10500
C982        C  0.55885250  0.53938984  0.71910088    -0.15500
C983        C  0.53875628  0.53028673  0.69908516     0.03500
C984        C  0.52140127  0.50324132  0.69635342    -0.10800
C985        C  0.52522911  0.48617220  0.71384806    -0.00800
C986        C  0.54564948  0.49537620  0.73342496    -0.06000
H987        H  0.57157969  0.56008518  0.72143328     0.06500
H988        H  0.51253224  0.46543060  0.71204615     0.09900
Br989      Br  0.62023083  0.55692617  0.70945974    -0.05700
Br990      Br  0.58779055  0.52891113  0.84636264    -0.02600
Br991      Br  0.53644802  0.55639819  0.67711264     0.00200
Br992      Br  0.54986012  0.47025312  0.75503446    -0.04200
C993        C  0.52187714  0.49927437  0.54649728    -0.11600
C994        C  0.52189262  0.48706328  0.52048561     0.03900
C995        C  0.54377857  0.49848954  0.50285108    -0.12100
C996        C  0.56621141  0.52138708  0.51094525     0.18800
C997        C  0.56643257  0.53324078  0.53707639    -0.09100
C998        C  0.54441729  0.52233658  0.55432587    -0.02100
H999        H  0.54329752  0.48940556  0.98255575     0.05300
C1000       C  0.58881865  0.53297333  0.99145986     0.20700
H1001       H  0.54522334  0.53188341  0.57438463     0.10500
C1002       C  0.59822705  0.55838111  0.98148468    -0.15500
C1003       C  0.61917741  0.56986465  0.96261883     0.03500
C1004       C  0.63039956  0.55538334  0.95236805    -0.10800
C1005       C  0.62092401  0.52993178  0.96227650    -0.00800
C1006       C  0.60063737  0.51884319  0.98201263    -0.06000
H1007       H  0.58906787  0.56930218  0.98826399     0.06500
H1008       H  0.62956563  0.51870049  0.95488230     0.09900
Br1009     Br  0.59657568  0.56370195  0.55105012    -0.05700
Br1010     Br  0.49303385  0.45517326  0.50709375    -0.02600
Br1011     Br  0.63045089  0.60479917  0.95060881     0.00200
Br1012     Br  0.59063094  0.48480602  0.49621201    -0.04200
C1013       C  0.41690473  0.65491578  0.62073888    -0.11600
C1014       C  0.43234497  0.65254250  0.59940307     0.03900
C1015       C  0.43639325  0.63131472  0.59972035    -0.12100
C1016       C  0.42525247  0.61230090  0.62102389     0.18800
C1017       C  0.40988802  0.61463706  0.64237496    -0.09100
C1018       C  0.40564114  0.63574161  0.64196536    -0.02100
H1019       H  0.44804264  0.62944732  0.58308159     0.05300
C1020       C  0.42965142  0.59001132  0.62034939     0.20700
H1021       H  0.39386091  0.63742622  0.65857470     0.10500
C1022       C  0.45283115  0.59285193  0.63120545    -0.15500
C1023       C  0.45763448  0.57208154  0.63095454     0.03500
C1024       C  0.43896360  0.54787730  0.61940921    -0.10800
C1025       C  0.41581254  0.54532824  0.60835000    -0.00800
C1026       C  0.41111356  0.56611290  0.60870209    -0.06000
H1027       H  0.46712430  0.61127558  0.64027748     0.06500
H1028       H  0.40123591  0.52705680  0.59926062     0.09900
Br1029     Br  0.39480721  0.58973036  0.67269525    -0.05700
Br1030     Br  0.44694336  0.67671676  0.56833629    -0.02600
Br1031     Br  0.48929817  0.57793232  0.64834702     0.00200
Br1032     Br  0.37922850  0.56113030  0.59284480    -0.04200
C1033       C  0.72929965  0.40043972  0.86514917    -0.11600
C1034       C  0.70771739  0.39906043  0.85085760     0.03900
C1035       C  0.70448523  0.42080027  0.85014659    -0.12100
C1036       C  0.72243296  0.44405153  0.86333461     0.18800
C1037       C  0.74408765  0.44560479  0.87727781    -0.09100
C1038       C  0.74748021  0.42400457  0.87786006    -0.02100
H1039       H  0.68781073  0.41956185  0.83932303     0.05300
C1040       C  0.71743234  0.46597104  0.86373619     0.20700
H1041       H  0.76405185  0.42544852  0.88911790     0.10500
C1042       C  0.69761244  0.46436763  0.88129492    -0.15500
C1043       C  0.69283590  0.48507855  0.88327530     0.03500
C1044       C  0.70814516  0.50794193  0.86742281    -0.10800
C1045       C  0.72770785  0.50926431  0.84945860    -0.00800
C1046       C  0.73227937  0.48844735  0.84733603    -0.06000
H1047       H  0.68615596  0.44708799  0.89398869     0.06500
H1048       H  0.73942387  0.52654356  0.83686578     0.09900
Br1049     Br  0.76873234  0.47629613  0.89722445    -0.05700
Br1050     Br  0.68256078  0.36868928  0.83082406    -0.02600
Br1051     Br  0.66651439  0.48158485  0.90956146     0.00200
Br1052     Br  0.75863196  0.49137989  0.82145896    -0.04200
C1053       C  0.45088012  0.74913832  0.61960639    -0.11600
C1054       C  0.44872530  0.76975208  0.60734275     0.03900
C1055       C  0.46990854  0.79492562  0.60786973    -0.12100
C1056       C  0.49338666  0.80007820  0.62024688     0.18800
C1057       C  0.49571323  0.77965605  0.63231102    -0.09100
C1058       C  0.47462858  0.75441556  0.63169554    -0.02100
H1059       H  0.46812161  0.81061130  0.59843510     0.05300
C1060       C  0.51498839  0.82702829  0.62095527     0.20700
H1061       H  0.47662140  0.73897441  0.64145204     0.10500
C1062       C  0.51330203  0.84494012  0.63902940    -0.15500
C1063       C  0.53361627  0.87056681  0.64073414     0.03500
C1064       C  0.55618951  0.87844139  0.62427995    -0.10800
C1065       C  0.55757365  0.86052125  0.60582960    -0.00800
C1066       C  0.53704735  0.83510520  0.60373144    -0.06000
H1067       H  0.49620837  0.83882521  0.65215494     0.06500
H1068       H  0.57459505  0.86643226  0.59264391     0.09900
Br1069     Br  0.52685017  0.78551770  0.65107755    -0.05700
Br1070     Br  0.41809983  0.76502850  0.58823526    -0.02600
Br1071     Br  0.52997597  0.89330405  0.66710161     0.00200
Br1072     Br  0.53955362  0.81241403  0.57633246    -0.04200
C1073       C  0.58345422  0.18034906  0.87857710    -0.11600
C1074       C  0.58457893  0.20126476  0.86297132     0.03900
C1075       C  0.60693544  0.22566359  0.86399384    -0.12100
C1076       C  0.62844334  0.22971576  0.88014517     0.18800
C1077       C  0.62742764  0.20900130  0.89576000    -0.09100
C1078       C  0.60511582  0.18452997  0.89475037    -0.02100
H1079       H  0.60772443  0.24151945  0.85174457     0.05300
C1080       C  0.65173387  0.25573791  0.88012492     0.20700
H1081       H  0.60457387  0.16878573  0.90698150     0.10500
C1082       C  0.65143409  0.27576511  0.89560466    -0.15500
C1083       C  0.67258796  0.30101255  0.89479717     0.03500
C1084       C  0.69446499  0.30653066  0.87802756    -0.10800
C1085       C  0.69489086  0.28628503  0.86302515    -0.00800
C1086       C  0.67369607  0.26108881  0.86380206    -0.06000
H1087       H  0.63462665  0.27170261  0.90836718     0.06500
H1088       H  0.71150212  0.29021767  0.84997629     0.09900
Br1089     Br  0.65582060  0.21344417  0.91917064    -0.05700
Br1090     Br  0.55712794  0.19753547  0.83827020    -0.02600
Br1091     Br  0.67100656  0.32670184  0.91823701     0.00200
Br1092     Br  0.67509712  0.23486616  0.84123780    -0.04200
C1093       C  0.53908447  0.05223888  0.95344307    -0.11600
C1094       C  0.55484446  0.04209347  0.94405200     0.03900
C1095       C  0.56586259  0.03281588  0.96397739    -0.12100
C1096       C  0.56155864  0.03335510  0.99339274     0.18800
C1097       C  0.54600254  0.04360755  0.50286216    -0.09100
C1098       C  0.53465370  0.05260473  0.98293702    -0.02100
H1099       H  0.57771002  0.02492066  0.95646218     0.05300
C1100       C  0.57374422  0.02334745  0.51366854     0.20700
H1101       H  0.52294234  0.06060758  0.99057151     0.10500
C1102       C  0.60076152  0.03676361  0.51685436    -0.15500
C1103       C  0.61305527  0.02784919  0.53558796     0.03500
C1104       C  0.59816151  0.00485409  0.55160918    -0.10800
C1105       C  0.57108031  0.99134065  0.54797797    -0.00800
C1106       C  0.55892478  0.00023025  0.52912214    -0.06000
H1107       H  0.61233066  0.05445919  0.50491076     0.06500
H1108       H  0.55922601  0.97352981  0.55961570     0.09900
Br1109     Br  0.54086215  0.04700335  0.54281573    -0.05700
Br1110     Br  0.56097805  0.03901554  0.90424660    -0.02600
Br1111     Br  0.64999678  0.04893974  0.53914343     0.00200
Br1112     Br  0.52211349  0.97952873  0.02434632    -0.04200
C1113       C  0.54074797  0.05564841  0.79940113    -0.11600
C1114       C  0.52814241  0.04263630  0.77379496     0.03900
C1115       C  0.54036164  0.03364583  0.75511567    -0.12100
C1116       C  0.56463365  0.03643136  0.76158252     0.18800
C1117       C  0.57721709  0.04938069  0.78692261    -0.09100
C1118       C  0.56542698  0.05896296  0.80527415    -0.02100
H1119       H  0.53062663  0.02400027  0.73546881     0.05300
C1120       C  0.57635341  0.02547968  0.74187613     0.20700
H1121       H  0.57557010  0.06857870  0.82475270     0.10500
C1122       C  0.60073209  0.04192122  0.72967245    -0.15500
C1123       C  0.61258960  0.03215349  0.71155917     0.03500
C1124       C  0.59960934  0.00555391  0.70451661    -0.10800
C1125       C  0.57502906  0.98920437  0.71623799    -0.00800
C1126       C  0.56355602  0.99881359  0.73508948    -0.06000
H1127       H  0.61062523  0.06251586  0.73430372     0.06500
H1128       H  0.56486685  0.96870291  0.71107728     0.09900
Br1129     Br  0.60985688  0.05319899  0.79857350    -0.05700
Br1130     Br  0.49428264  0.03589735  0.76255996    -0.02600
Br1131     Br  0.64586419  0.05626602  0.69590368     0.00200
Br1132     Br  0.53100910  0.97439503  0.75202426    -0.04200
C1133       C  0.23008285  0.67103710  0.62908385    -0.11600
C1134       C  0.25102854  0.69382461  0.61740209     0.03900
C1135       C  0.27602771  0.69726284  0.61809842    -0.12100
C1136       C  0.28063428  0.67838094  0.63015058     0.18800
C1137       C  0.26000004  0.65600699  0.64235280    -0.09100
C1138       C  0.23496858  0.65239463  0.64155865    -0.02100
H1139       H  0.29190706  0.71451256  0.60862598     0.05300
C1140       C  0.30700151  0.68207731  0.62922755     0.20700
H1141       H  0.21926257  0.63498232  0.65096127     0.10500
C1142       C  0.32600085  0.70011517  0.64764022    -0.15500
C1143       C  0.35115188  0.70395174  0.64734942     0.03500
C1144       C  0.35747739  0.68943936  0.62843242    -0.10800
C1145       C  0.33837577  0.67136869  0.61006248    -0.00800
C1146       C  0.31337638  0.66786248  0.61007899    -0.06000
H1147       H  0.32116613  0.71110614  0.66242353     0.06500
H1148       H  0.34312105  0.66047180  0.59504451     0.09900
Br1149     Br  0.26525008  0.63011781  0.66070048    -0.05700
Br1150     Br  0.24682097  0.72016933  0.59839070    -0.02600
Br1151     Br  0.37560755  0.72826110  0.67419422     0.00200
Br1152     Br  0.28886778  0.64433926  0.58276287    -0.04200
C1153       C  0.91817063  0.39067206  0.87984071    -0.11600
C1154       C  0.91192709  0.40987785  0.88784699     0.03900
C1155       C  0.88602376  0.40390797  0.88816232    -0.12100
C1156       C  0.86598202  0.37903615  0.88101892     0.18800
C1157       C  0.87200840  0.35977089  0.87352616    -0.09100
C1158       C  0.89780030  0.36563163  0.87310273    -0.02100
H1159       H  0.88144825  0.41879836  0.89392301     0.05300
C1160       C  0.83919960  0.37426213  0.87931278     0.20700
H1161       H  0.90187947  0.35050467  0.86686475     0.10500
C1162       C  0.83309279  0.38667987  0.85771482    -0.15500
C1163       C  0.80800880  0.38265512  0.85489196     0.03500
C1164       C  0.78842589  0.36574373  0.87390043    -0.10800
C1165       C  0.79456974  0.35329079  0.89551950    -0.00800
C1166       C  0.81980099  0.35769491  0.89860094    -0.06000
H1167       H  0.84795484  0.39943677  0.84274634     0.06500
H1168       H  0.77980182  0.34058060  0.91058791     0.09900
Br1169     Br  0.84589612  0.32555155  0.86214925    -0.05700
Br1170     Br  0.93723449  0.44433139  0.89952063    -0.02600
Br1171     Br  0.80150557  0.39969485  0.82372339     0.00200
Br1172     Br  0.82707121  0.34168017  0.93019046    -0.04200
C1173       C  0.04905302  0.47850854  0.94991836    -0.11600
C1174       C  0.05411776  0.50368330  0.94243291     0.03900
C1175       C  0.06525560  0.52372583  0.96250995    -0.12100
C1176       C  0.07168148  0.51929777  0.98993659     0.18800
C1177       C  0.06674297  0.49437919  0.99751010    -0.09100
C1178       C  0.05566475  0.47428469  0.97752568    -0.02100
H1179       H  0.06907686  0.54293135  0.95667517     0.05300
C1180       C  0.08257229  0.54077252  0.51065704     0.20700
H1181       H  0.05183954  0.45517788  0.98379423     0.10500
C1182       C  0.06602196  0.54824543  0.52334480    -0.15500
C1183       C  0.07549620  0.56862518  0.54297511     0.03500
C1184       C  0.10203554  0.58183318  0.55022849    -0.10800
C1185       C  0.11857657  0.57421973  0.53752708    -0.00800
C1186       C  0.10907548  0.55402467  0.51757623    -0.06000
H1187       H  0.04561404  0.53803700  0.51807648     0.06500
H1188       H  0.13900654  0.58433905  0.54269177     0.09900
Br1189     Br  0.07401551  0.48675363  0.53515406    -0.05700
Br1190     Br  0.04776548  0.51266344  0.90496931    -0.02600
Br1191     Br  0.05090368  0.57638865  0.56027858     0.00200
Br1192     Br  0.13300207  0.54577211  0.99953589    -0.04200
C1193       C  0.10506299  0.58135049  0.70136392    -0.11600
C1194       C  0.10484916  0.58598418  0.73093642     0.03900
C1195       C  0.09471048  0.56517188  0.75012240    -0.12100
C1196       C  0.08498762  0.53971962  0.74033927     0.18800
C1197       C  0.08600705  0.53513334  0.71095676    -0.09100
C1198       C  0.09612102  0.55591952  0.69172922    -0.02100
H1199       H  0.09430664  0.56882890  0.77283565     0.05300
C1200       C  0.07277294  0.51812531  0.76094652     0.20700
H1201       H  0.09631074  0.55210939  0.66902695     0.10500
C1202       C  0.04733044  0.50963821  0.76984795    -0.15500
C1203       C  0.03488110  0.48907897  0.78919731     0.03500
C1204       C  0.04806317  0.47663344  0.80000210    -0.10800
C1205       C  0.07362496  0.48528903  0.79093007    -0.00800
C1206       C  0.08604128  0.50595027  0.77174057    -0.06000
H1207       H  0.03701109  0.51893039  0.76143306     0.06500
H1208       H  0.08420679  0.47621740  0.79917773     0.09900
Br1209     Br  0.07291470  0.50074193  0.69614941    -0.05700
Br1210     Br  0.11936576  0.62038123  0.74634759    -0.02600
Br1211     Br  0.99951460  0.47812990  0.79853894     0.00200
Br1212     Br  0.12125944  0.51731145  0.76132148    -0.04200
C1213       C  0.21772476  0.40235786  0.87378828    -0.11600
C1214       C  0.19792614  0.38702147  0.85410022     0.03900
C1215       C  0.17401080  0.38598923  0.85575991    -0.12100
C1216       C  0.16935703  0.39990474  0.87681671     0.18800
C1217       C  0.18870120  0.41457126  0.89697342    -0.09100
C1218       C  0.21263877  0.41563082  0.89542322    -0.02100
H1219       H  0.15897682  0.37440047  0.84042902     0.05300
C1220       C  0.14455648  0.39970620  0.87666591     0.20700
H1221       H  0.22756200  0.42742425  0.91076310     0.10500
C1222       C  0.12515610  0.38406608  0.89620723    -0.15500
C1223       C  0.10148301  0.38368511  0.89652856     0.03500
C1224       C  0.09711814  0.39926024  0.87702814    -0.10800
C1225       C  0.11646637  0.41449277  0.85715322    -0.00800
C1226       C  0.14007946  0.41488332  0.85693800    -0.06000
H1227       H  0.12842931  0.37203081  0.91114123     0.06500
H1228       H  0.11342277  0.42659156  0.84208857     0.09900
Br1229     Br  0.18356406  0.43426844  0.92613608    -0.05700
Br1230     Br  0.20167088  0.36596796  0.82545139    -0.02600
Br1231     Br  0.07540269  0.36039726  0.92276955     0.00200
Br1232     Br  0.16600010  0.43700771  0.82993112    -0.04200
C1233       C  0.37721537  0.43080627  0.54031367    -0.11600
C1234       C  0.37189414  0.41072653  0.52060067     0.03900
C1235       C  0.35470779  0.40604882  0.99800107    -0.12100
C1236       C  0.34273973  0.42105198  0.99473880     0.18800
C1237       C  0.34744317  0.44053093  0.51468474    -0.09100
C1238       C  0.36442128  0.44516279  0.53731760    -0.02100
H1239       H  0.35096117  0.39091676  0.98260250    -0.00100
C1240       C  0.32676464  0.41742487  0.96937490     0.20700
H1241       H  0.36830388  0.46075071  0.55210999     0.10500
C1242       C  0.29989594  0.40104240  0.97080033    -0.15500
C1243       C  0.28425157  0.39794675  0.94709327     0.03500
C1244       C  0.29569491  0.41159157  0.92154527    -0.10800
C1245       C  0.32270521  0.42788864  0.92037468    -0.00800
C1246       C  0.33820217  0.43087118  0.94398684    -0.06000
H1247       H  0.29111420  0.39057446  0.99041300     0.06500
H1248       H  0.33188268  0.43859323  0.90100523     0.09900
Br1249     Br  0.33206519  0.46209083  0.51097043    -0.05700
Br1250     Br  0.38667210  0.38856570  0.52370546    -0.02600
Br1251     Br  0.24789166  0.37367152  0.95053606     0.00200
Br1252     Br  0.37488826  0.45375625  0.94078826    -0.04200
C1253       C  0.37727336  0.43347020  0.70198185    -0.11600
C1254       C  0.35175396  0.42846318  0.69660367     0.03900
C1255       C  0.33489842  0.42396160  0.71943337    -0.12100
C1256       C  0.34282471  0.42429775  0.74766509     0.18800
C1257       C  0.36788969  0.42864473  0.75315772    -0.09100
C1258       C  0.38483912  0.43311429  0.73042492    -0.02100
H1259       H  0.31545361  0.42019272  0.71517419     0.05300
C1260       C  0.32455088  0.41982272  0.77110530     0.20700
H1261       H  0.40424905  0.43704954  0.73514711     0.10500
C1262       C  0.31399100  0.39647272  0.78638317    -0.15500
C1263       C  0.29777782  0.39220890  0.80975632     0.03500
C1264       C  0.29174173  0.41135337  0.81785122    -0.10800
C1265       C  0.30134210  0.43423772  0.80185214    -0.00800
C1266       C  0.31779325  0.43863613  0.77858798    -0.06000
H1267       H  0.31883466  0.38179159  0.78045463     0.06500
H1268       H  0.29708964  0.44921292  0.80832722     0.09900
Br1269     Br  0.38021959  0.42985186  0.79140188    -0.05700
Br1270     Br  0.33793833  0.42655248  0.65892217    -0.02600
Br1271     Br  0.28450044  0.36012497  0.83029615     0.00200
Br1272     Br  0.33205035  0.47127851  0.75900536    -0.04200
C1273       C  0.04821056  0.65675733  0.62373257    -0.11600
C1274       C  0.03140009  0.64889809  0.59981210     0.03900
C1275       C  0.00931277  0.65147501  0.60033226    -0.12100
C1276       C  0.00356124  0.66203053  0.62412973     0.18800
C1277       C  0.02032781  0.67007709  0.64788898    -0.09100
C1278       C  0.04231454  0.66730579  0.64758434    -0.02100
H1279       H  0.99622810  0.64474446  0.58220056     0.05300
C1280       C  0.97901787  0.66265227  0.62447011     0.20700
H1281       H  0.05507337  0.67380457  0.66599217     0.10500
C1282       C  0.95971781  0.64685545  0.64403331    -0.15500
C1283       C  0.93567308  0.64562751  0.64417490     0.03500
C1284       C  0.93055399  0.66049387  0.62437995    -0.10800
C1285       C  0.94982301  0.67611431  0.60458223    -0.00800
C1286       C  0.97391493  0.67733555  0.60453948    -0.06000
H1287       H  0.96320722  0.63494437  0.65889273     0.06500
H1288       H  0.94623475  0.68764253  0.58927614     0.09900
Br1289     Br  0.01443718  0.68565268  0.68089156    -0.05700
Br1290     Br  0.03629615  0.63308045  0.56635955    -0.02600
Br1291     Br  0.91013920  0.62155673  0.67033922     0.00200
Br1292     Br  0.99939709  0.69978885  0.57734435    -0.04200
C1293       C  0.76795372  0.62423655  0.78995521    -0.11600
C1294       C  0.76015310  0.61450050  0.76203640     0.03900
C1295       C  0.77868549  0.62163307  0.74046616    -0.12100
C1296       C  0.80495745  0.63840870  0.74630843     0.18800
C1297       C  0.81275396  0.64841120  0.77405892    -0.09100
C1298       C  0.79427775  0.64102096  0.79578294    -0.02100
H1299       H  0.77265502  0.61387492  0.71912559     0.05300
C1300       C  0.82375250  0.64543302  0.72287585     0.20700
H1301       H  0.80040697  0.64861903  0.81716675     0.10500
C1302       C  0.82483389  0.66273240  0.70189764    -0.15500
C1303       C  0.84082944  0.66829739  0.67802963     0.03500
C1304       C  0.85603036  0.65629445  0.67489719    -0.10800
C1305       C  0.85560882  0.63970585  0.69654243    -0.00800
C1306       C  0.83943807  0.63403387  0.72031786    -0.06000
H1307       H  0.81287742  0.67166215  0.70393938     0.06500
H1308       H  0.86689678  0.63007951  0.69429925     0.09900
Br1309     Br  0.84822687  0.67268507  0.78289082    -0.05700
Br1310     Br  0.72477620  0.59008557  0.75265451    -0.02600
Br1311     Br  0.84140473  0.69282687  0.65085950     0.00200
Br1312     Br  0.83804369  0.60931439  0.74770484    -0.04200
C1313       C  0.85587506  0.65352006  0.57097446    -0.11600
C1314       C  0.86652201  0.66955910  0.54678293     0.03900
C1315       C  0.85102120  0.66550703  0.52256736    -0.12100
C1316       C  0.82500260  0.64567918  0.52226086     0.18800
C1317       C  0.81460918  0.62939775  0.54621992    -0.09100
C1318       C  0.82995059  0.63353123  0.57033004    -0.02100
H1319       H  0.85912432  0.67806526  0.50412920     0.05300
C1320       C  0.80878736  0.64168042  0.49680184     0.20700
H1321       H  0.82157369  0.62095113  0.58871780     0.10500
C1322       C  0.81121110  0.62861380  0.97320522    -0.15500
C1323       C  0.79392344  0.62131155  0.95019788     0.03500
C1324       C  0.77347278  0.62711781  0.95067522    -0.10800
C1325       C  0.77202973  0.64135144  0.97402650    -0.00800
C1326       C  0.78945407  0.64864207  0.49684442    -0.06000
H1327       H  0.82614726  0.62330466  0.97313991     0.06500
H1328       H  0.75701878  0.64651933  0.97491775     0.09900
Br1329     Br  0.77964662  0.60097479  0.54683601    -0.05700
Br1330     Br  0.90131250  0.69820623  0.54654396    -0.02600
Br1331     Br  0.79949577  0.60274062  0.91991242     0.00200
Br1332     Br  0.78583738  0.66764379  0.52797883    -0.04200
C1333       C  0.69958427  0.67931975  0.86999725    -0.11600
C1334       C  0.68178234  0.68248698  0.85291951     0.03900
C1335       C  0.68194142  0.70612139  0.85316921    -0.12100
C1336       C  0.69975393  0.72687500  0.87003140     0.18800
C1337       C  0.71777462  0.72388337  0.88669435    -0.09100
C1338       C  0.71744706  0.70018265  0.88677905    -0.02100
H1339       H  0.66777124  0.70817234  0.84060286     0.05300
C1340       C  0.69796678  0.75078055  0.87168453     0.20700
H1341       H  0.73137027  0.69811989  0.89979755     0.10500
C1342       C  0.68412631  0.75352028  0.89428515    -0.15500
C1343       C  0.68172026  0.77567163  0.89680635     0.03500
C1344       C  0.69344857  0.79587722  0.87635052    -0.10800
C1345       C  0.70706860  0.79279774  0.85344391    -0.00800
C1346       C  0.70943371  0.77054790  0.85106861    -0.06000
H1347       H  0.67493850  0.73814887  0.91000959     0.06500
H1348       H  0.71631500  0.80796076  0.83752426     0.09900
Br1349     Br  0.74328037  0.75177872  0.90941008    -0.05700
Br1350     Br  0.65560238  0.65467217  0.83055662    -0.02600
Br1351     Br  0.66073570  0.77583904  0.92778386     0.00200
Br1352     Br  0.72890313  0.76806917  0.81977069    -0.04200
C1353       C  0.69129789  0.86512021  0.93343104    -0.11600
C1354       C  0.66864230  0.85398637  0.95023166     0.03900
C1355       C  0.66649663  0.86786151  0.97326115    -0.12100
C1356       C  0.68643226  0.89306401  0.97944038     0.18800
C1357       C  0.70922579  0.90404987  0.96297687    -0.09100
C1358       C  0.71148417  0.89009942  0.94012562    -0.02100
H1359       H  0.64875806  0.85940991  0.98565434     0.05300
C1360       C  0.68264239  0.90792358  0.00242545     0.20700
H1361       H  0.72871262  0.89913974  0.92688190     0.10500
C1362       C  0.68618748  0.90318753  0.53094281    -0.15500
C1363       C  0.68183819  0.91618998  0.55333258     0.03500
C1364       C  0.67341689  0.93416162  0.54731246    -0.10800
C1365       C  0.67066529  0.93939132  0.51856211    -0.00800
C1366       C  0.67509586  0.92637603  0.99623737    -0.06000
H1367       H  0.69233965  0.88929576  0.53577820     0.06500
H1368       H  0.66411123  0.95291333  0.51341082     0.09900
Br1369     Br  0.73725253  0.93837691  0.97037983    -0.05700
Br1370     Br  0.63893581  0.82142452  0.94053355    -0.02600
Br1371     Br  0.68879857  0.90912883  0.59144058     0.00200
Br1372     Br  0.66957326  0.93358259  0.95764712    -0.04200
C1373       C  0.67058870  0.93127634  0.70901622    -0.11600
C1374       C  0.69107085  0.94535946  0.72847835     0.03900
C1375       C  0.69593223  0.93229180  0.75047403    -0.12100
C1376       C  0.68070943  0.90529439  0.75362030     0.18800
C1377       C  0.66041261  0.89121886  0.73419955    -0.09100
C1378       C  0.65576245  0.90413803  0.71197986    -0.02100
H1379       H  0.71139026  0.94330076  0.76555613     0.05300
C1380       C  0.68422931  0.89270375  0.77924831     0.20700
H1381       H  0.63973827  0.89294470  0.69760665     0.10500
C1382       C  0.67641637  0.89738373  0.80568582    -0.15500
C1383       C  0.67822501  0.88545229  0.83062230     0.03500
C1384       C  0.68836445  0.86828340  0.82950617    -0.10800
C1385       C  0.69633801  0.86375184  0.80278644    -0.00800
C1386       C  0.69446209  0.87589140  0.77783857    -0.06000
H1387       H  0.66834848  0.91015905  0.80682488     0.06500
H1388       H  0.70435837  0.85096533  0.80128397     0.09900
Br1389     Br  0.63716823  0.85465671  0.73854483    -0.05700
Br1390     Br  0.71349311  0.98221891  0.72591767    -0.02600
Br1391     Br  0.66487843  0.89298609  0.86460069     0.00200
Br1392     Br  0.70669760  0.86956129  0.74247698    -0.04200
C1393       C  0.72566774  0.05910168  0.62826715    -0.11600
C1394       C  0.73813725  0.07308120  0.65352769     0.03900
C1395       C  0.76151797  0.09658845  0.65155814    -0.12100
C1396       C  0.77296329  0.10680349  0.62500387     0.18800
C1397       C  0.76059920  0.09332713  0.59991386    -0.09100
C1398       C  0.73727449  0.06982542  0.60166286    -0.02100
H1399       H  0.77104163  0.10691480  0.67097345     0.05300
C1400       C  0.79840300  0.13091449  0.62410779     0.20700
H1401       H  0.72827697  0.05989216  0.58190817     0.10500
C1402       C  0.82043134  0.12949264  0.61637753    -0.15500
C1403       C  0.84501096  0.15163557  0.61677627     0.03500
C1404       C  0.84781002  0.17555168  0.62538358    -0.10800
C1405       C  0.82582333  0.17709619  0.63285224    -0.00800
C1406       C  0.80117089  0.15502612  0.63202775    -0.06000
H1407       H  0.81850517  0.11101606  0.61038470     0.06500
H1408       H  0.82784363  0.19553532  0.63919365     0.09900
Br1409     Br  0.77459904  0.10658948  0.56272201    -0.05700
Br1410     Br  0.72499074  0.06200944  0.69161037    -0.02600
Br1411     Br  0.87433128  0.14818326  0.60657095     0.00200
Br1412     Br  0.77180484  0.15880933  0.64103057    -0.04200
C1413       C  0.91885564  0.24232021  0.68270064    -0.11600
C1414       C  0.94555725  0.25339870  0.68838594     0.03900
C1415       C  0.95633739  0.26929699  0.71231803    -0.12100
C1416       C  0.94084972  0.27424204  0.73089230     0.18800
C1417       C  0.91397375  0.26213336  0.72606951    -0.09100
C1418       C  0.90314447  0.24610610  0.70221326    -0.02100
H1419       H  0.97699656  0.27837541  0.71608491     0.05300
C1420       C  0.95339381  0.29381548  0.75360530     0.20700
H1421       H  0.88265450  0.23792772  0.69794155     0.10500
C1422       C  0.96735949  0.32005465  0.74587091    -0.15500
C1423       C  0.97878560  0.33941409  0.76667207     0.03500
C1424       C  0.97621899  0.33250847  0.79592048    -0.10800
C1425       C  0.96246630  0.30613657  0.80352237    -0.00800
C1426       C  0.95133761  0.28683283  0.78261836    -0.06000
H1427       H  0.96895368  0.32550771  0.72349286     0.06500
H1428       H  0.96056929  0.30048651  0.82584655     0.09900
Br1429     Br  0.89170538  0.26873906  0.74998342    -0.05700
Br1430     Br  0.96810676  0.24735176  0.66426465    -0.02600
Br1431     Br  0.99595649  0.37479259  0.75371486     0.00200
Br1432     Br  0.93405564  0.25122793  0.79450174    -0.04200
C1433       C  0.97543064  0.33460094  0.95981319    -0.11600
C1434       C  0.94847850  0.32103637  0.96523310     0.03900
C1435       C  0.93866413  0.30391527  0.98837261    -0.12100
C1436       C  0.95523230  0.30016589  0.50648684     0.18800
C1437       C  0.98202847  0.31352078  0.50114168    -0.09100
C1438       C  0.99194946  0.33067549  0.97802150    -0.02100
H1439       H  0.91807608  0.29394812  0.99270005     0.05300
C1440       C  0.94422466  0.28309741  0.53158219     0.20700
H1441       H  0.01262430  0.34087484  0.97417907     0.10500
C1442       C  0.93108116  0.25611266  0.52793971    -0.15500
C1443       C  0.91991542  0.23945026  0.55135030     0.03500
C1444       C  0.92165574  0.24991659  0.57894392    -0.10800
C1445       C  0.93510482  0.27703285  0.58235419    -0.00800
C1446       C  0.94619693  0.29355230  0.55902041    -0.06000
H1447       H  0.92966633  0.24800814  0.50680466     0.06500
H1448       H  0.93650498  0.28556085  0.60323095     0.09900
Br1449     Br  0.00564883  0.30875585  0.52482691    -0.05700
Br1450     Br  0.92419701  0.32649442  0.94347883    -0.02600
Br1451     Br  0.90397621  0.20287052  0.54436183     0.00200
Br1452     Br  0.96305283  0.33028159  0.56552431    -0.04200
C1453       C  0.41236906  0.00157364  0.87580548    -0.11600
C1454       C  0.39324385  0.99540430  0.89703095     0.03900
C1455       C  0.36981162  0.97204346  0.89542634    -0.12100
C1456       C  0.36485569  0.95464444  0.87291228     0.18800
C1457       C  0.38346968  0.96099876  0.85129375    -0.09100
C1458       C  0.40699174  0.98429018  0.85287076    -0.02100
H1459       H  0.35524844  0.96742692  0.91179663     0.05300
C1460       C  0.34012359  0.92995522  0.87254856     0.20700
H1461       H  0.42129668  0.98872536  0.83625307     0.10500
C1462       C  0.32114168  0.92626662  0.85243524    -0.15500
C1463       C  0.29710845  0.90343557  0.85227812     0.03500
C1464       C  0.29184656  0.88380725  0.87263607    -0.10800
C1465       C  0.31096885  0.88772803  0.89279172    -0.00800
C1466       C  0.33494177  0.91049831  0.89282193    -0.06000
H1467       H  0.32493464  0.94140380  0.83708462     0.06500
H1468       H  0.30744985  0.87287842  0.90838917     0.09900
Br1469     Br  0.37791740  0.93812576  0.81976229    -0.05700
Br1470     Br  0.39693882  0.01852433  0.92769277    -0.02600
Br1471     Br  0.27196865  0.90126656  0.82499215     0.00200
Br1472     Br  0.36027527  0.91389470  0.92047978    -0.04200
C1473       C  0.17172887  0.72376776  0.54432672    -0.11600
C1474       C  0.18671979  0.75079369  0.54896892     0.03900
C1475       C  0.19691240  0.76757089  0.52564184    -0.12100
C1476       C  0.19265511  0.75789836  0.99769160     0.18800
C1477       C  0.17849705  0.73098085  0.99299189    -0.09100
C1478       C  0.16784972  0.71418182  0.51620457    -0.02100
H1479       H  0.20803210  0.78827859  0.52926854     0.05300
C1480       C  0.20350459  0.77623004  0.97373171     0.20700
H1481       H  0.15698686  0.69350416  0.51227885     0.10500
C1482       C  0.23032319  0.78950335  0.96943389    -0.15500
C1483       C  0.24123771  0.80600238  0.94599294     0.03500
C1484       C  0.22504487  0.80933748  0.92644937    -0.10800
C1485       C  0.19824266  0.79663438  0.93141319    -0.00800
C1486       C  0.18743901  0.78038571  0.95503190    -0.06000
H1487       H  0.24272999  0.78640109  0.98395096     0.06500
H1488       H  0.18561954  0.79919395  0.91668517     0.09900
Br1489     Br  0.17418980  0.71626714  0.95544352    -0.05700
Br1490     Br  0.19314525  0.76633870  0.58622294    -0.02600
Br1491     Br  0.27792157  0.82130904  0.94065403     0.00200
Br1492     Br  0.15077146  0.76444777  0.96109110    -0.04200
C1493       C  0.21974088  0.81108665  0.82278894    -0.11600
C1494       C  0.19283007  0.79948598  0.81845086     0.03900
C1495       C  0.18147934  0.78357437  0.79468108    -0.12100
C1496       C  0.19661077  0.77880168  0.77538226     0.18800
C1497       C  0.22358843  0.79103676  0.77919612    -0.09100
C1498       C  0.23499810  0.80728911  0.80267432    -0.02100
H1499       H  0.16073912  0.77434433  0.79162423     0.05300
C1500       C  0.18384534  0.75990704  0.75227990     0.20700
H1501       H  0.25564917  0.81586389  0.80604478     0.10500
C1502       C  0.18565384  0.76872911  0.72414303    -0.15500
C1503       C  0.17516754  0.75112550  0.70154512     0.03500
C1504       C  0.16292531  0.72424562  0.70707655    -0.10800
C1505       C  0.16015743  0.71552330  0.73546778    -0.00800
C1506       C  0.17054538  0.73314057  0.75801979    -0.06000
H1507       H  0.19541224  0.78933086  0.71978583     0.06500
H1508       H  0.15075633  0.69497264  0.74006150     0.09900
Br1509     Br  0.24527807  0.78449451  0.75422587    -0.05700
Br1510     Br  0.17084477  0.80491077  0.84414584    -0.02600
Br1511     Br  0.17703788  0.76491881  0.66396033     0.00200
Br1512     Br  0.16732035  0.71979508  0.79612405    -0.04200
C1513       C  0.42789509  0.24695479  0.62434266    -0.11600
C1514       C  0.41293709  0.25278226  0.60549835     0.03900
C1515       C  0.41643095  0.27787126  0.60475410    -0.12100
C1516       C  0.43492335  0.29751857  0.62222311     0.18800
C1517       C  0.45018841  0.29193220  0.64060763    -0.09100
C1518       C  0.44641407  0.26677587  0.64179750    -0.02100
H1519       H  0.40450669  0.28204411  0.59067800     0.05300
C1520       C  0.43719876  0.32341190  0.62201766     0.20700
H1521       H  0.45849561  0.26286276  0.65591353     0.10500
C1522       C  0.42547645  0.32990586  0.64400945    -0.15500
C1523       C  0.42697320  0.35414078  0.64461213     0.03500
C1524       C  0.44079669  0.37259643  0.62301682    -0.10800
C1525       C  0.45222472  0.36580061  0.60077847    -0.00800
C1526       C  0.45047566  0.34144901  0.60013322    -0.06000
H1527       H  0.41478018  0.31584706  0.66061802     0.06500
H1528       H  0.46279137  0.37958441  0.58390517     0.09900
Br1529     Br  0.47705663  0.31836286  0.66359314    -0.05700
Br1530     Br  0.38654464  0.22718302  0.58140209    -0.02600
Br1531     Br  0.40801399  0.35985771  0.67422340     0.00200
Br1532     Br  0.46678782  0.33374330  0.56926564    -0.04200
C1533       C  0.43347144  0.17887337  0.67861631    -0.11600
C1534       C  0.41801292  0.17435294  0.70318650     0.03900
C1535       C  0.42260966  0.16369367  0.72781323    -0.12100
C1536       C  0.44257484  0.15763561  0.72828181     0.18800
C1537       C  0.45819594  0.16255561  0.70391992    -0.09100
C1538       C  0.45347162  0.17289255  0.67936265    -0.02100
H1539       H  0.41042527  0.15980773  0.74644685     0.05300
C1540       C  0.44689802  0.14564253  0.75383587     0.20700
H1541       H  0.46560728  0.17640698  0.66074213     0.10500
C1542       C  0.43851215  0.11906898  0.75345664    -0.15500
C1543       C  0.44575234  0.10762245  0.77505624     0.03500
C1544       C  0.46215705  0.12310594  0.79757726    -0.10800
C1545       C  0.46929581  0.14955232  0.79851362    -0.00800
C1546       C  0.46176716  0.16078290  0.77697810    -0.06000
H1547       H  0.42681512  0.10728180  0.73573602     0.06500
H1548       H  0.48149627  0.16188442  0.81562675     0.09900
Br1549     Br  0.48646160  0.15570257  0.70337343    -0.05700
Br1550     Br  0.38940548  0.18064236  0.70351091    -0.02600
Br1551     Br  0.43210540  0.07082609  0.77204590     0.00200
Br1552     Br  0.47336459  0.19716286  0.77915653    -0.04200
C1553       C  0.46130289  0.12363093  0.95464424    -0.11600
C1554       C  0.47022849  0.15061098  0.95670549     0.03900
C1555       C  0.46123551  0.15997623  0.97871301    -0.12100
C1556       C  0.44334743  0.14311430  0.49879305     0.18800
C1557       C  0.43312313  0.11624667  0.49582188    -0.09100
C1558       C  0.44220169  0.10670634  0.97400141    -0.02100
H1559       H  0.46915946  0.18068942  0.98101859     0.05300
C1560       C  0.43866872  0.15420568  0.52481899     0.20700
H1561       H  0.43459463  0.08599199  0.97251564     0.10500
C1562       C  0.41576325  0.15523214  0.52792140    -0.15500
C1563       C  0.41139382  0.16581487  0.55269921     0.03500
C1564       C  0.43015886  0.17553841  0.57458081    -0.10800
C1565       C  0.45290019  0.17427531  0.57143087    -0.00800
C1566       C  0.45730252  0.16384582  0.54677552    -0.06000
H1567       H  0.40126550  0.14762337  0.51122027     0.06500
H1568       H  0.46738030  0.18159066  0.58816529     0.09900
Br1569     Br  0.40774963  0.09211460  0.52201063    -0.05700
Br1570     Br  0.49615347  0.17642426  0.93208818    -0.02600
Br1571     Br  0.37895077  0.16493287  0.55656442     0.00200
Br1572     Br  0.48895937  0.16283479  0.04418286    -0.04200
loop_ 
_geom_bond_atom_site_label_1 
_geom_bond_atom_site_label_2 
_geom_bond_distance 
_geom_bond_site_symmetry_2 
_ccdc_geom_bond_type 
C1            N2   1.361       .  A
C1            N6   1.363       .  A
C1          C727   1.481       .  S
N2            C3   1.358       .  A
C3            N4   1.355       .  A
C3          C778   1.471       .  S
N4            C5   1.356       .  A
C5            N6   1.360       .  A
C5          C747   1.477       .  S
C7            N8   1.360       .  A
C7           N12   1.357       .  A
C7          C678   1.477       .  S
N8            C9   1.357       .  A
C9           N10   1.354       .  A
C9          C698   1.470       .  S
N10          C11   1.354       .  A
C11          N12   1.356       .  A
C11         C707   1.465       .  S
C13          N14   1.359       .  A
C13          N18   1.360       .  A
C13         C618   1.468       .  S
N14          C15   1.358       .  A
C15          N16   1.354       .  A
C15         C627   1.473       .  S
N16          C17   1.356       .  A
C17          N18   1.359       .  A
C17         C658   1.481       .  S
C19          N20   1.367       .  A
C19          N24   1.365       .  A
C19         C558   1.492       .  S
N20          C21   1.364       .  A
C21          N22   1.352       .  A
C21         C598   1.492       .  S
N22          C23   1.350       .  A
C23          N24   1.359       .  A
C23         C567   1.472       .  S
C25          N26   1.360       .  A
C25          N30   1.363       .  A
C25         C498   1.479       .  S
N26          C27   1.357       .  A
C27          N28   1.352       .  A
C27         C518   1.473       .  S
N28          C29   1.353       .  A
C29          N30   1.360       .  A
C29         C527   1.473       .  S
C31          N32   1.360       .  A
C31          N36   1.361       .  A
C31         C427   1.477       .  S
N32          C33   1.355       .  A
C33          N34   1.351       .  A
C33         C478   1.462       .  S
N34          C35   1.353       .  A
C35          N36   1.358       .  A
C35         C458   1.475       .  S
O37          C53   1.274       .  A
O37         Zn43   2.012       .  S
C38         C647   1.477       .  S
C38          O54   1.272       .  A
C38          O51   1.274   1_655  A
O39          C52   1.275       .  A
O39         Cd46   2.082   1_655  S
O40          C58   1.275       .  A
O40         Cd49   2.062       .  S
O41          C55   1.274       .  A
O41         Cd45   2.062       .  S
O42          C53   1.274   1_455  A
O42         Cd45   2.064       .  S
Zn43         O54   2.007       .  S
Zn43         O56   1.997       .  S
Zn43         O48   1.931   1_655  S
O44          C55   1.274       .  A
O44         Cd49   2.064       .  S
Cd45         O47   2.063       .  S
Cd45         O48   1.990       .  S
Cd46         O50   2.081       .  S
Cd46         O59   2.070       .  S
Cd46         O48   2.001       .  S
O47          C57   1.274       .  A
O48         Cd49   1.993       .  S
Cd49         O51   2.068       .  S
O50          C57   1.276       .  A
C52         C367   1.488       .  S
C52          O56   1.272       .  A
C53         C638   1.476       .  S
C55         C438   1.473       .  S
C57         C418   1.482       .  S
C58         C387   1.480       .  S
C58          O59   1.275       .  A
O60          C76   1.271       .  A
O60         Zn66   2.001       .  S
C61         C718   1.471       .  S
C61          O77   1.273       .  A
C61          O74   1.273       .  A
O62          C75   1.275       .  A
O62         Cd69   2.072       .  S
O63          C81   1.276       .  A
O63         Cd72   2.069       .  S
O64          C78   1.273       .  A
O64         Cd68   2.064       .  S
O65          C76   1.273       .  A
O65         Cd68   2.056       .  S
Zn66         O77   2.004       .  S
Zn66         O79   2.006       .  S
Zn66         O71   1.932       .  S
O67          C78   1.277       .  A
O67         Cd72   2.079       .  S
Cd68         O70   2.057       .  S
Cd68         O71   1.984       .  S
Cd69         O73   2.070       .  S
Cd69         O82   2.067       .  S
Cd69         O71   1.996       .  S
O70          C80   1.273       .  A
O71         Cd72   1.991       .  S
Cd72         O74   2.059       .  S
O73          C80   1.275       .  A
C75         C347   1.480       .  S
C75          O79   1.272       .  A
C76         C687   1.473       .  S
C78         C487   1.484       .  S
C80         C398   1.472       .  S
C81         C407   1.473       .  S
C81          O82   1.275       .  A
O83          C99   1.274       .  A
O83         Zn89   2.016       .  S
C84         C767   1.487       .  S
C84         O100   1.270       .  A
C84          O97   1.277       .  A
O85          C98   1.275       .  A
O85         Cd92   2.072       .  S
O86         C104   1.279       .  A
O86         Cd95   2.100       .  S
O87         C101   1.274       .  A
O87         Cd91   2.061       .  S
O88          C99   1.273       .  A
O88         Cd91   2.073       .  S
Zn89        O100   1.999       .  S
Zn89        O102   2.016       .  S
Zn89         O94   1.939       .  S
O90         C101   1.276       .  A
O90         Cd95   2.075       .  S
Cd91         O93   2.076       .  S
Cd91         O94   2.000       .  S
Cd92         O96   2.070       .  S
Cd92        O105   2.067       .  S
Cd92         O94   1.996       .  S
O93         C103   1.274       .  A
O94         Cd95   2.010       .  S
Cd95         O97   2.087       .  S
O96         C103   1.276       .  A
C98         C287   1.480       .  S
C98         O102   1.274       .  A
C99         C758   1.492       .  S
C101        C667   1.480       .  S
C103        C327   1.494       .  S
C104        C307   1.486       .  S
C104        O105   1.274       .  A
O106        C122   1.272       .  A
O106       Zn112   2.003       .  S
C107        C587   1.487       .  S
C107        O123   1.274       .  A
C107        O120   1.277       .  A
O108        C121   1.273       .  A
O108       Cd115   2.068       .  S
O109        C127   1.277   1_545  A
O109       Cd118   2.086   1_545  S
O110        C124   1.278       .  A
O110       Cd114   2.079   1_545  S
O111        C122   1.277       .  A
O111       Cd114   2.091       .  S
Zn112       O123   2.010       .  S
Zn112       O125   1.999       .  S
Zn112       O117   1.937       .  S
O113        C124   1.275       .  A
O113       Cd118   2.075   1_545  S
Cd114       O116   2.087       .  S
Cd114       O117   2.006       .  S
Cd115       O119   2.072       .  S
Cd115       O128   2.067       .  S
Cd115       O117   2.002       .  S
O116        C126   1.276       .  A
O117       Cd118   2.005       .  S
Cd118       O120   2.093       .  S
O119        C126   1.275       .  A
C121        C278   1.473       .  S
C121        O125   1.272       .  A
C122        C578   1.485       .  S
C124        C607   1.495       .  S
C126        C318   1.492   1_565  S
C127        C338   1.479   1_565  S
C127        O128   1.274       .  A
C129        N130   1.358       .  A
C129        N134   1.359       .  A
C129        C298   1.477       .  S
N130        C131   1.358       .  A
C131        N132   1.356       .  A
C131        C378   1.474       .  S
N132        C133   1.357       .  A
C133        N134   1.358       .  A
C133        C247   1.480       .  S
C135        N136   1.359       .  A
C135        N140   1.355       .  A
C135        C267   1.479       .  S
N136        C137   1.359       .  A
C137        N138   1.359       .  A
C137        C227   1.474       .  S
N138        C139   1.358       .  A
C139        N140   1.355       .  A
C139        C358   1.473       .  S
O141        C157   1.273       .  A
O141       Zn147   1.994       .  S
C142        C467   1.482       .  S
C142        O158   1.270       .  A
C142        O155   1.276       .  A
O143        C156   1.273       .  A
O143       Cd150   2.074       .  S
O144        C162   1.278       .  A
O144       Cd153   2.078       .  S
O145        C159   1.275       .  A
O145       Cd149   2.066       .  S
O146        C157   1.274       .  A
O146       Cd149   2.068       .  S
Zn147       O158   1.991       .  S
Zn147       O160   2.005       .  S
Zn147       O152   1.927       .  S
O148        C159   1.276       .  A
O148       Cd153   2.080       .  S
Cd149       O151   2.071       .  S
Cd149       O152   1.997       .  S
Cd150       O154   2.053       .  S
Cd150       O163   2.056       .  S
Cd150       O152   1.990       .  S
O151        C161   1.274       .  A
O152       Cd153   1.997       .  S
Cd153       O155   2.075       .  S
O154        C161   1.274       .  A
C156        C238   1.484       .  S
C156        O160   1.272       .  A
C157        C447   1.476       .  S
C159        C738   1.483       .  S
C161        C207   1.485       .  S
C162        C198   1.488       .  S
C162        O163   1.272       .  A
O164        C180   1.272       .  A
O164       Zn170   2.002       .  S
C165        C538   1.492       .  S
C165        O181   1.271       .  A
C165        O178   1.276       .  A
O166        C179   1.274       .  A
O166       Cd173   2.073       .  S
O167        C185   1.275       .  A
O167       Cd176   2.072       .  S
O168        C182   1.274       .  A
O168       Cd172   2.067       .  S
O169        C180   1.273       .  A
O169       Cd172   2.060       .  S
Zn170       O181   2.008       .  S
Zn170       O183   2.007       .  S
Zn170       O175   1.936       .  S
O171        C182   1.276       .  A
O171       Cd176   2.079       .  S
Cd172       O174   2.060       .  S
Cd172       O175   1.993       .  S
Cd173       O177   2.073       .  S
Cd173       O186   2.059       .  S
Cd173       O175   2.001       .  S
O174        C184   1.273       .  A
O175       Cd176   1.998       .  S
Cd176       O178   2.076       .  S
O177        C184   1.274       .  A
C179        C258   1.477       .  S
C179        O183   1.273       .  A
C180        C507   1.466       .  S
C182        C547   1.478       .  S
C184        C187   1.477       .  S
C185        C218   1.475       .  S
C185        O186   1.274       .  A
C187        C188   1.411       .  A
C187        C192   1.404       .  A
C188        C189   1.398       .  A
C188       Br204   1.920       .  S
C189        C190   1.404       .  A
C189        H193   1.082       .  S
C190        C194   1.482       .  S
C190        C191   1.410       .  A
C191        C192   1.397       .  A
C191       Br203   1.920       .  S
C192        H195   1.083       .  S
C194        C196   1.401       .  A
C194        C200   1.408       .  A
C196        C197   1.398       .  A
C196        H201   1.082       .  S
C197        C198   1.419       .  A
C197       Br205   1.922       .  S
C198        C199   1.407       .  A
C199        C200   1.397       .  A
C199        H202   1.082       .  S
C200       Br206   1.920       .  S
C207        C208   1.416       .  A
C207        C212   1.408       .  A
C208        C209   1.399       .  A
C208       Br224   1.922       .  S
C209        C210   1.403       .  A
C209        H999   1.085   1_554  S
C210       C1000   1.481   1_554  S
C210        C211   1.407       .  A
C211        C212   1.394       .  A
C211       Br223   1.921       .  S
C212        H215   1.085       .  S
H213        C995   1.085       .  S
C214        C996   1.481       .  S
C214        C216   1.404       .  A
C214        C220   1.409       .  A
C216        C217   1.397       .  A
C216        H221   1.083       .  S
C217        C218   1.411       .  A
C217       Br225   1.921       .  S
C218        C219   1.404       .  A
C219        C220   1.397       .  A
C219        H222   1.083       .  S
C220      Br1012   1.921       .  S
Br226      C1006   1.921       .  S
C227        C228   1.411       .  A
C227        C232   1.404       .  A
C228        C229   1.398       .  A
C228       Br244   1.919       .  S
C229        C230   1.401       .  A
C229        H233   1.084       .  S
C230        C234   1.474       .  S
C230        C231   1.407       .  A
C231        C232   1.399       .  A
C231       Br243   1.919       .  S
C232        H235   1.084       .  S
C234        C236   1.400       .  A
C234        C240   1.404       .  A
C236        C237   1.400       .  A
C236        H241   1.084       .  S
C237        C238   1.416       .  A
C237       Br245   1.919       .  S
C238        C239   1.408       .  A
C239        C240   1.397       .  A
C239        H242   1.084       .  S
C240       Br246   1.919       .  S
C247        C248   1.414       .  A
C247        C252   1.406       .  A
C248        C249   1.399       .  A
C248       Br264   1.920       .  S
C249        C250   1.401       .  A
C249        H253   1.084       .  S
C250        C254   1.475       .  S
C250        C251   1.406       .  A
C251        C252   1.397       .  A
C251       Br263   1.920       .  S
C252        H255   1.083       .  S
C254        C256   1.401       .  A
C254        C260   1.406       .  A
C256        C257   1.399       .  A
C256        H261   1.084       .  S
C257        C258   1.412       .  A
C257       Br265   1.920       .  S
C258        C259   1.406       .  A
C259        C260   1.397       .  A
C259        H262   1.084       .  S
C260       Br266   1.919       .  S
C267        C268   1.416       .  A
C267        C272   1.406       .  A
C268        C269   1.397       .  A
C268       Br284   1.922       .  S
C269        C270   1.399       .  A
C269        H273   1.084       .  S
C270        C274   1.473       .  S
C270        C271   1.407       .  A
C271        C272   1.397       .  A
C271       Br283   1.920       .  S
C272        H275   1.083       .  S
C274        C276   1.402       .  A
C274        C280   1.406       .  A
C276        C277   1.398       .  A
C276        H281   1.085       .  S
C277        C278   1.411       .  A
C277       Br285   1.920       .  S
C278        C279   1.405       .  A
C279        C280   1.396       .  A
C279        H282   1.084       .  S
C280       Br286   1.920       .  S
C287        C288   1.414       .  A
C287        C292   1.406       .  A
C288        C289   1.398       .  A
C288       Br304   1.922       .  S
C289        C290   1.400       .  A
C289        H293   1.084       .  S
C290        C294   1.476       .  S
C290        C291   1.407       .  A
C291        C292   1.400       .  A
C291       Br303   1.919       .  S
C292        H295   1.083       .  S
C294        C296   1.401       .  A
C294        C300   1.407       .  A
C296        C297   1.399       .  A
C296        H301   1.084       .  S
C297        C298   1.412       .  A
C297       Br305   1.920       .  S
C298        C299   1.405       .  A
C299        C300   1.398       .  A
C299        H302   1.084       .  S
C300       Br306   1.919       .  S
C307        C308   1.415       .  A
C307        C312   1.405       .  A
C308        C309   1.401       .  A
C308       Br324   1.922       .  S
C309        C310   1.402       .  A
C309        H313   1.083       .  S
C310       C1100   1.486       .  S
C310       C1097   1.411       .  A
C311       C1096   1.411   1_554  A
C311       C1098   1.404   1_554  A
C311       Br323   1.919       .  S
C312       C1097   1.404       .  A
C312        H315   1.082       .  S
C314       C1096   1.486   1_554  S
C314        C316   1.403       .  A
C314        C320   1.407       .  A
C316        C317   1.404       .  A
C316        H321   1.082       .  S
C317        C318   1.417       .  A
C317       Br325   1.922       .  S
C318        C319   1.409   1_545  A
C319        C320   1.400   1_565  A
C319        H322   1.082       .  S
C320      Br1112   1.919   1_545  S
Br326      C1106   1.919   1_565  S
C327        C328   1.420       .  A
C327        C332   1.409       .  A
C328        C329   1.402       .  A
C328       Br344   1.923       .  S
C329        C330   1.404       .  A
C329        H333   1.085       .  S
C330        C334   1.488       .  S
C330        C331   1.408       .  A
C331        C332   1.397       .  A
C331       Br343   1.920       .  S
C332        H335   1.085       .  S
C334        C336   1.405       .  A
C334        C340   1.411   1_545  A
C336        C337   1.401       .  A
C336        H341   1.084       .  S
C337        C338   1.411       .  A
C337       Br345   1.920       .  S
C338        C339   1.404   1_545  A
C339        C340   1.400       .  A
C339        H342   1.084       .  S
C340       Br346   1.920       .  S
C347        C348   1.416       .  A
C347        C352   1.405       .  A
C348        C349   1.399       .  A
C348       Br364   1.923       .  S
C349        C350   1.400       .  A
C349        H353   1.084       .  S
C350        C354   1.474       .  S
C350        C351   1.406       .  A
C351        C352   1.397       .  A
C351       Br363   1.919       .  S
C352        H355   1.084       .  S
C354        C356   1.401       .  A
C354        C360   1.407       .  A
C356        C357   1.399       .  A
C356        H361   1.084       .  S
C357        C358   1.412       .  A
C357       Br365   1.920       .  S
C358        C359   1.403       .  A
C359        C360   1.397       .  A
C359        H362   1.084       .  S
C360       Br366   1.919       .  S
C367        C368   1.417       .  A
C367        C372   1.410       .  A
C368        C369   1.400       .  A
C368       Br384   1.921       .  S
C369        C370   1.402       .  A
C369        H373   1.082       .  S
C370        C374   1.477       .  S
C370        C371   1.405       .  A
C371        C372   1.396       .  A
C371       Br383   1.921       .  S
C372        H375   1.082       .  S
C374        C376   1.401       .  A
C374        C380   1.408       .  A
C376        C377   1.397       .  A
C376        H381   1.086       .  S
C377        C378   1.411       .  A
C377       Br385   1.920       .  S
C378        C379   1.404       .  A
C379        C380   1.398       .  A
C379        H382   1.085       .  S
C380       Br386   1.919       .  S
C387        C388   1.416       .  A
C387        C392   1.407       .  A
C388        C389   1.398       .  A
C388       Br404   1.922       .  S
C389        C390   1.399       .  A
C389        H393   1.082       .  S
C390       C1180   1.471       .  S
C390        C391   1.405       .  A
C391        C392   1.397       .  A
C391      Br1189   1.919       .  S
C392        H395   1.082       .  S
C394       C1176   1.471   1_554  S
C394        C396   1.399       .  A
C394        C400   1.406       .  A
C396        C397   1.396       .  A
C396        H401   1.082       .  S
C397        C398   1.412       .  A
C397       Br405   1.920       .  S
C398        C399   1.405       .  A
C399        C400   1.398       .  A
C399        H402   1.082       .  S
C400      Br1192   1.919   1_554  S
Br403      C1177   1.919   1_554  S
Br406      C1186   1.919       .  S
C407        C408   1.410       .  A
C407        C412   1.404       .  A
C408        C409   1.398       .  A
C408       Br424   1.921       .  S
C409        C410   1.401       .  A
C409        H413   1.086       .  S
C410        C414   1.474       .  S
C410        C411   1.407       .  A
C411        C412   1.398       .  A
C411       Br423   1.919       .  S
C412        H415   1.086       .  S
C414        C416   1.401       .  A
C414        C420   1.405       .  A
C416        C417   1.399       .  A
C416        H421   1.084       .  S
C417        C418   1.413       .  A
C417       Br425   1.920   1_455  S
C418        C419   1.408       .  A
C419        C420   1.398       .  A
C419        H422   1.084       .  S
C420       Br426   1.919       .  S
C427        C428   1.413       .  A
C427        C432   1.406       .  A
C428        C429   1.397       .  A
C428       Br444   1.921       .  S
C429        C430   1.400       .  A
C429        H433   1.084       .  S
C430        C434   1.471       .  S
C430        C431   1.405       .  A
C431        C432   1.397       .  A
C431       Br443   1.919       .  S
C432        H435   1.084       .  S
C434        C436   1.401       .  A
C434        C440   1.405       .  A
C436        C437   1.399       .  A
C436        H441   1.084       .  S
C437        C438   1.412       .  A
C437       Br445   1.921       .  S
C438        C439   1.404       .  A
C439        C440   1.395       .  A
C439        H442   1.084       .  S
C440       Br446   1.919       .  S
C447        C448   1.414       .  A
C447        C452   1.406       .  A
C448       C1235   1.399   1_554  A
C448       Br464   1.921       .  S
C449        C450   1.400       .  A
C449       C1234   1.399       .  A
C449        H453   1.085       .  S
C450        C454   1.467       .  S
C450       C1237   1.402       .  A
C451        C452   1.393       .  A
C451       C1236   1.402   1_554  A
C451       Br463   1.919       .  S
C452        H455   1.085       .  S
C454        C456   1.400       .  A
C454        C460   1.403       .  A
C456        C457   1.399       .  A
C456        H461   1.085       .  S
C457        C458   1.413       .  A
C457       Br465   1.920       .  S
C458        C459   1.406       .  A
C459        C460   1.392       .  A
C459        H462   1.085       .  S
C460       Br466   1.920       .  S
C467        C468   1.418       .  A
C467        C472   1.407       .  A
C468        C469   1.396       .  A
C468       Br484   1.923       .  S
C469        C470   1.398       .  A
C469        H473   1.083       .  S
C470        C474   1.472       .  S
C470        C471   1.406       .  A
C471        C472   1.397       .  A
C471       Br483   1.920       .  S
C472        H475   1.082       .  S
C474        C476   1.401       .  A
C474        C480   1.409       .  A
C476        C477   1.395       .  A
C476        H481   1.083       .  S
C477        C478   1.406       .  A
C477       Br485   1.919       .  S
C478        C479   1.401       .  A
C479        C480   1.398       .  A
C479        H482   1.083       .  S
C480       Br486   1.919       .  S
C487        C488   1.416       .  A
C487        C492   1.407       .  A
C488        C489   1.399       .  A
C488       Br504   1.920       .  S
C489        C490   1.401       .  A
C489        H493   1.084   1_455  S
C490        C494   1.481   1_455  S
C490        C491   1.408       .  A
C491        C492   1.399       .  A
C491       Br503   1.920       .  S
C492        H495   1.084       .  S
C494        C496   1.401       .  A
C494        C500   1.409       .  A
C496        C497   1.397       .  A
C496        H501   1.083       .  S
C497        C498   1.414       .  A
C497       Br505   1.920       .  S
C498        C499   1.405       .  A
C499        C500   1.400       .  A
C499        H502   1.083       .  S
C500       Br506   1.919       .  S
C507        C508   1.409       .  A
C507        C512   1.403       .  A
C508        C509   1.396       .  A
C508       Br524   1.921       .  S
C509        C510   1.401       .  A
C509        H513   1.082       .  S
C510        C514   1.470       .  S
C510        C511   1.406       .  A
C511        C512   1.397       .  A
C511       Br523   1.918       .  S
C512        H515   1.082       .  S
C514        C516   1.399       .  A
C514        C520   1.406       .  A
C516        C517   1.395       .  A
C516        H521   1.084       .  S
C517        C518   1.412       .  A
C517       Br525   1.921       .  S
C518        C519   1.404       .  A
C519        C520   1.397       .  A
C519        H522   1.084       .  S
C520       Br526   1.919       .  S
C527        C528   1.409       .  A
C527        C532   1.403       .  A
C528        C529   1.403       .  A
C528       Br544   1.918       .  S
C529        C530   1.404       .  A
C529        H533   1.083       .  S
C530        C534   1.475   1_554  S
C530        C531   1.406       .  A
C531        C532   1.393       .  A
C531       Br543   1.920       .  S
C532        H535   1.084       .  S
C534        C540   1.405       .  A
C534       C1322   1.398       .  A
C536        C537   1.400       .  A
C536       C1320   1.398       .  A
C536        H541   1.082       .  S
C537        C538   1.422       .  A
C537       Br545   1.923       .  S
C538        C539   1.410       .  A
C539       C1326   1.398       .  A
C539        H542   1.081       .  S
C540       C1325   1.398       .  A
C540       Br546   1.919   1_556  S
C547        C548   1.413       .  A
C547        C552   1.404       .  A
C548        C549   1.401       .  A
C548       Br564   1.921       .  S
C549        C550   1.402       .  A
C549        H553   1.084       .  S
C550        C554   1.480       .  S
C550        C551   1.407       .  A
C551        C552   1.400       .  A
C551       Br563   1.917       .  S
C552        H555   1.084       .  S
C554        C556   1.399       .  A
C554        C560   1.406       .  A
C556        C557   1.399       .  A
C556        H561   1.084       .  S
C557        C558   1.417       .  A
C557       Br565   1.916       .  S
C558        C559   1.409       .  A
C559        C560   1.403       .  A
C559        H562   1.084       .  S
C560       Br566   1.917       .  S
C567        C568   1.409       .  A
C567        C572   1.404       .  A
C568        C569   1.400       .  A
C568       Br584   1.916       .  S
C569        C570   1.402       .  A
C569        H573   1.084       .  S
C570        C574   1.478       .  S
C570        C571   1.406       .  A
C571        C572   1.399       .  A
C571       Br583   1.918       .  S
C572        H575   1.084       .  S
C574        C580   1.408       .  A
C574       C1362   1.399       .  A
C576        C577   1.400       .  A
C576       C1360   1.399       .  A
C576        H581   1.081       .  S
C577        C578   1.417       .  A
C577       Br585   1.921       .  S
C578        C579   1.407       .  A
C579       C1366   1.401   1_554  A
C579        H582   1.082       .  S
C580       C1365   1.401       .  A
C580       Br586   1.919       .  S
C587        C588   1.414       .  A
C587        C592   1.408       .  A
C588        C589   1.403       .  A
C588       Br604   1.920       .  S
C589        C590   1.404       .  A
C589        H593   1.083       .  S
C590        C594   1.481       .  S
C590        C591   1.406       .  A
C591        C592   1.399       .  A
C591       Br603   1.920       .  S
C592        H595   1.083       .  S
C594        C596   1.396       .  A
C594        C600   1.408       .  A
C596        C597   1.396       .  A
C596        H601   1.084       .  S
C597        C598   1.423       .  A
C597       Br605   1.926       .  S
C598        C599   1.409       .  A
C599        C600   1.404       .  A
C599        H602   1.083       .  S
C600       Br606   1.918       .  S
C607        C608   1.422       .  A
C607        C612   1.411       .  A
C608        C609   1.401       .  A
C608       Br624   1.923       .  S
C609        C610   1.400       .  A
C609        H613   1.084       .  S
C610        C614   1.479       .  S
C610        C611   1.404       .  A
C611        C612   1.398       .  A
C611       Br623   1.919       .  S
C612        H615   1.083       .  S
C614        C616   1.404       .  A
C614        C620   1.409       .  A
C616        C617   1.399       .  A
C616        H621   1.083       .  S
C617        C618   1.406       .  A
C617       Br625   1.918       .  S
C618        C619   1.402       .  A
C619        C620   1.400       .  A
C619        H622   1.083       .  S
C620       Br626   1.918       .  S
C627        C628   1.411       .  A
C627        C632   1.403       .  A
C628        C629   1.397       .  A
C628       Br644   1.920       .  S
C629        C630   1.401       .  A
C629        H633   1.084       .  S
C630        C634   1.474       .  S
C630        C631   1.408       .  A
C631        C632   1.398       .  A
C631       Br643   1.919       .  S
C632        H635   1.084       .  S
C634        C636   1.401       .  A
C634        C640   1.405       .  A
C636        C637   1.398       .  A
C636        H641   1.085       .  S
C637        C638   1.413       .  A
C637       Br645   1.922       .  S
C638        C639   1.406       .  A
C639        C640   1.398       .  A
C639        H642   1.084       .  S
C640       Br646   1.918       .  S
C647        C648   1.415       .  A
C647        C652   1.405       .  A
C648        C649   1.398       .  A
C648       Br664   1.923       .  S
C649       C1436   1.400       .  A
C649        H653   1.082       .  S
C650        C654   1.474       .  S
C650        C651   1.406       .  A
C650       C1435   1.400   1_554  A
C651       C1438   1.398   1_554  A
C651       Br663   1.919   1_655  S
C652       C1437   1.398       .  A
C652        H655   1.083   1_655  S
C654        C656   1.402       .  A
C654        C660   1.404       .  A
C656        C657   1.401       .  A
C656        H661   1.084       .  S
C657        C658   1.413       .  A
C657       Br665   1.919       .  S
C658        C659   1.407       .  A
C659        C660   1.394       .  A
C659        H662   1.084       .  S
C660       Br666   1.920       .  S
C667        C668   1.414   1_545  A
C667        C672   1.407   1_545  A
C668        C669   1.397       .  A
C668       Br684   1.921   1_565  S
C669        C670   1.400       .  A
C669        H673   1.084       .  S
C670        C674   1.473       .  S
C670        C671   1.405       .  A
C671        C672   1.398       .  A
C671       Br683   1.919       .  S
C672        H675   1.084       .  S
C674        C676   1.401       .  A
C674        C680   1.405       .  A
C676        C677   1.399       .  A
C676        H681   1.083       .  S
C677        C678   1.414       .  A
C677       Br685   1.921       .  S
C678        C679   1.405       .  A
C679        C680   1.395       .  A
C679        H682   1.082       .  S
C680       Br686   1.919       .  S
C687        C688   1.413       .  A
C687        C692   1.405       .  A
C688        C689   1.396       .  A
C688       Br704   1.918       .  S
C689       C1476   1.399   1_554  A
C689        H693   1.082       .  S
C690        C694   1.469       .  S
C690        C691   1.406       .  A
C690       C1475   1.399       .  A
C691       C1478   1.395       .  A
C691       Br703   1.920       .  S
C692       C1477   1.395   1_554  A
C692        H695   1.082       .  S
C694        C696   1.400       .  A
C694        C700   1.406       .  A
C696        C697   1.396       .  A
C696        H701   1.084       .  S
C697        C698   1.412       .  A
C697       Br705   1.919       .  S
C698        C699   1.404       .  A
C699        C700   1.395       .  A
C699        H702   1.084       .  S
C700       Br706   1.920       .  S
C707        C708   1.409       .  A
C707        C712   1.402       .  A
C708        C709   1.396       .  A
C708       Br724   1.919       .  S
C709        C710   1.401       .  A
C709        H713   1.083       .  S
C710        C714   1.468       .  S
C710        C711   1.406       .  A
C711        C712   1.395       .  A
C711       Br723   1.919       .  S
C712        H715   1.083       .  S
C714        C716   1.400       .  A
C714        C720   1.406       .  A
C716        C717   1.396       .  A
C716        H721   1.082       .  S
C717        C718   1.411       .  A
C717       Br725   1.918       .  S
C718        C719   1.404       .  A
C719        C720   1.395       .  A
C719        H722   1.082       .  S
C720       Br726   1.919       .  S
C727        C728   1.413       .  A
C727        C732   1.406       .  A
C728        C729   1.400       .  A
C728       Br744   1.916       .  S
C729        C730   1.401       .  A
C729        H733   1.084       .  S
C730        C734   1.477       .  S
C730        C731   1.406       .  A
C731        C732   1.399       .  A
C731       Br743   1.918       .  S
C732        H735   1.083       .  S
C734        C736   1.401       .  A
C734        C740   1.406       .  A
C736        C737   1.399       .  A
C736        H741   1.084       .  S
C737        C738   1.414       .  A
C737       Br745   1.921       .  S
C738        C739   1.408       .  A
C739        C740   1.400       .  A
C739        H742   1.084       .  S
C740       Br746   1.918       .  S
C747        C748   1.411       .  A
C747        C752   1.403       .  A
C748        C749   1.405       .  A
C748       Br764   1.918       .  S
C749        C750   1.404       .  A
C749        H753   1.082       .  S
C750        C754   1.478       .  S
C750        C751   1.406       .  A
C751        C752   1.395       .  A
C751       Br763   1.920       .  S
C752        H755   1.083       .  S
C754        C756   1.400       .  A
C754        C760   1.404       .  A
C756        C757   1.400       .  A
C756        H761   1.084       .  S
C757        C758   1.419       .  A
C757       Br765   1.923       .  S
C758        C759   1.411       .  A
C759        C760   1.399       .  A
C759        H762   1.084       .  S
C760       Br766   1.918       .  S
C767        C768   1.420       .  A
C767        C772   1.409       .  A
C768        C769   1.397       .  A
C768       Br784   1.924       .  S
C769       C1556   1.398       .  A
C769        H773   1.083       .  S
C770        C774   1.475   1_556  S
C770        C771   1.405       .  A
C770       C1555   1.398       .  A
C771       C1558   1.400       .  A
C771       Br783   1.918   1_556  S
C772       C1557   1.400       .  A
C772        H775   1.082       .  S
C774        C776   1.403       .  A
C774        C780   1.407       .  A
C776        C777   1.403       .  A
C776        H781   1.082       .  S
C777        C778   1.409       .  A
C777       Br785   1.915       .  S
C778        C779   1.401       .  A
C779        C780   1.394       .  A
C779        H782   1.082       .  S
C780      Br1572   1.920       .  S
Br786      C1566   1.920       .  S
C787        N788   1.361       .  A
C787        N792   1.363       .  A
C787       C1513   1.481       .  S
N788        C789   1.358       .  A
C789        N790   1.355       .  A
C789       C1564   1.471       .  S
N790        C791   1.356       .  A
C791        N792   1.360       .  A
C791       C1533   1.477       .  S
C793        N794   1.360       .  A
C793        N798   1.357       .  A
C793       C1464   1.477       .  S
N794        C795   1.357       .  A
C795        N796   1.354       .  A
C795       C1484   1.470       .  S
N796        C797   1.354       .  A
C797        N798   1.356       .  A
C797       C1493   1.465       .  S
C799        N800   1.359       .  A
C799        N804   1.360       .  A
C799       C1404   1.468       .  S
N800        C801   1.358       .  A
C801        N802   1.354       .  A
C801       C1413   1.473       .  S
N802        C803   1.356       .  A
C803        N804   1.359       .  A
C803       C1444   1.481       .  S
C805        N806   1.367       .  A
C805        N810   1.365       .  A
C805       C1344   1.492       .  S
N806        C807   1.364       .  A
C807        N808   1.352       .  A
C807       C1384   1.492       .  S
N808        C809   1.350       .  A
C809        N810   1.359       .  A
C809       C1353   1.472       .  S
C811        N812   1.360       .  A
C811        N816   1.363       .  A
C811       C1284   1.479       .  S
N812        C813   1.357       .  A
C813        N814   1.352       .  A
C813       C1304   1.473       .  S
N814        C815   1.353       .  A
C815        N816   1.360       .  A
C815       C1313   1.473       .  S
C817        N818   1.360       .  A
C817        N822   1.361       .  A
C817       C1213   1.477       .  S
N818        C819   1.355       .  A
C819        N820   1.351       .  A
C819       C1264   1.462       .  S
N820        C821   1.353       .  A
C821        N822   1.358       .  A
C821       C1244   1.475       .  S
O823        C839   1.274       .  A
O823       Zn829   2.012       .  S
C824       C1433   1.477       .  S
C824        O840   1.272       .  A
C824        O837   1.274   1_655  A
O825        C838   1.275       .  A
O825       Cd832   2.082   1_655  S
O826        C844   1.275       .  A
O826       Cd835   2.062       .  S
O827        C841   1.274       .  A
O827       Cd831   2.062       .  S
O828        C839   1.274   1_455  A
O828       Cd831   2.064       .  S
Zn829       O840   2.007       .  S
Zn829       O842   1.997       .  S
Zn829       O834   1.931   1_655  S
O830        C841   1.274       .  A
O830       Cd835   2.064       .  S
Cd831       O833   2.063       .  S
Cd831       O834   1.990       .  S
Cd832       O836   2.081       .  S
Cd832       O845   2.070       .  S
Cd832       O834   2.001       .  S
O833        C843   1.274       .  A
O834       Cd835   1.993       .  S
Cd835       O837   2.068       .  S
O836        C843   1.276       .  A
C838       C1153   1.488       .  S
C838        O842   1.272       .  A
C839       C1424   1.476       .  S
C841       C1224   1.473       .  S
C843       C1204   1.482       .  S
C844       C1173   1.480       .  S
C844        O845   1.275       .  A
O846        C862   1.271       .  A
O846       Zn852   2.001       .  S
C847       C1504   1.471       .  S
C847        O863   1.273       .  A
C847        O860   1.273       .  A
O848        C861   1.275       .  A
O848       Cd855   2.072       .  S
O849        C867   1.276       .  A
O849       Cd858   2.069       .  S
O850        C864   1.273       .  A
O850       Cd854   2.064       .  S
O851        C862   1.273       .  A
O851       Cd854   2.056       .  S
Zn852       O863   2.004       .  S
Zn852       O865   2.006       .  S
Zn852       O857   1.932       .  S
O853        C864   1.277       .  A
O853       Cd858   2.079       .  S
Cd854       O856   2.057       .  S
Cd854       O857   1.984       .  S
Cd855       O859   2.070       .  S
Cd855       O868   2.067       .  S
Cd855       O857   1.996       .  S
O856        C866   1.273       .  A
O857       Cd858   1.991       .  S
Cd858       O860   2.059       .  S
O859        C866   1.275       .  A
C861       C1133   1.480       .  S
C861        O865   1.272       .  A
C862       C1473   1.473       .  S
C864       C1273   1.484       .  S
C866       C1184   1.472       .  S
C867       C1193   1.473       .  S
C867        O868   1.275       .  A
O869        C885   1.274       .  A
O869       Zn875   2.016       .  S
C870       C1553   1.487       .  S
C870        O886   1.270       .  A
C870        O883   1.277       .  A
O871        C884   1.275       .  A
O871       Cd878   2.072       .  S
O872        C890   1.279       .  A
O872       Cd881   2.100       .  S
O873        C887   1.274       .  A
O873       Cd877   2.061       .  S
O874        C885   1.273       .  A
O874       Cd877   2.073       .  S
Zn875       O886   1.999       .  S
Zn875       O888   2.016       .  S
Zn875       O880   1.939       .  S
O876        C887   1.276       .  A
O876       Cd881   2.075       .  S
Cd877       O879   2.076       .  S
Cd877       O880   2.000       .  S
Cd878       O882   2.070       .  S
Cd878       O891   2.067       .  S
Cd878       O880   1.996       .  S
O879        C889   1.274       .  A
O880       Cd881   2.010       .  S
Cd881       O883   2.087       .  S
O882        C889   1.276       .  A
C884       C1073   1.480       .  S
C884        O888   1.274       .  A
C885       C1544   1.492       .  S
C887       C1453   1.480       .  S
C889       C1113   1.494       .  S
C890       C1093   1.486       .  S
C890        O891   1.274       .  A
O892        C908   1.272       .  A
O892       Zn898   2.003       .  S
C893       C1373   1.487       .  S
C893        O909   1.274       .  A
C893        O906   1.277       .  A
O894        C907   1.273       .  A
O894       Cd901   2.068       .  S
O895        C913   1.277   1_545  A
O895       Cd904   2.086   1_545  S
O896        C910   1.278       .  A
O896       Cd900   2.079   1_545  S
O897        C908   1.277       .  A
O897       Cd900   2.091       .  S
Zn898       O909   2.010       .  S
Zn898       O911   1.999       .  S
Zn898       O903   1.937       .  S
O899        C910   1.275       .  A
O899       Cd904   2.075   1_545  S
Cd900       O902   2.087       .  S
Cd900       O903   2.006       .  S
Cd901       O905   2.072       .  S
Cd901       O914   2.067       .  S
Cd901       O903   2.002       .  S
O902        C912   1.276       .  A
O903       Cd904   2.005       .  S
Cd904       O906   2.093       .  S
O905        C912   1.275       .  A
C907       C1064   1.473       .  S
C907        O911   1.272       .  A
C908       C1364   1.485       .  S
C910       C1393   1.495       .  S
C912       C1104   1.492   1_565  S
C913       C1124   1.479   1_565  S
C913        O914   1.274       .  A
C915        N916   1.358       .  A
C915        N920   1.359       .  A
C915       C1084   1.477       .  S
N916        C917   1.358       .  A
C917        N918   1.356       .  A
C917       C1164   1.474       .  S
N918        C919   1.357       .  A
C919        N920   1.358       .  A
C919       C1033   1.480       .  S
C921        N922   1.359       .  A
C921        N926   1.355       .  A
C921       C1053   1.479       .  S
N922        C923   1.359       .  A
C923        N924   1.359       .  A
C923       C1013   1.474       .  S
N924        C925   1.358       .  A
C925        N926   1.355       .  A
C925       C1144   1.473       .  S
O927        C943   1.273       .  A
O927       Zn933   1.994       .  S
C928       C1253   1.482       .  S
C928        O944   1.270       .  A
C928        O941   1.276       .  A
O929        C942   1.273       .  A
O929       Cd936   2.074       .  S
O930        C948   1.278       .  A
O930       Cd939   2.078       .  S
O931        C945   1.275       .  A
O931       Cd935   2.066       .  S
O932        C943   1.274       .  A
O932       Cd935   2.068       .  S
Zn933       O944   1.991       .  S
Zn933       O946   2.005       .  S
Zn933       O938   1.927       .  S
O934        C945   1.276       .  A
O934       Cd939   2.080       .  S
Cd935       O937   2.071       .  S
Cd935       O938   1.997       .  S
Cd936       O940   2.053       .  S
Cd936       O949   2.056       .  S
Cd936       O938   1.990       .  S
O937        C947   1.274       .  A
O938       Cd939   1.997       .  S
Cd939       O941   2.075       .  S
O940        C947   1.274       .  A
C942       C1024   1.484       .  S
C942        O946   1.272       .  A
C943       C1233   1.476       .  S
C945       C1524   1.483       .  S
C947        C993   1.485       .  S
C948        C984   1.488       .  S
C948        O949   1.272       .  A
O950        C966   1.272       .  A
O950       Zn956   2.002       .  S
C951       C1324   1.492       .  S
C951        O967   1.271       .  A
C951        O964   1.276       .  A
O952        C965   1.274       .  A
O952       Cd959   2.073       .  S
O953        C971   1.275       .  A
O953       Cd962   2.072       .  S
O954        C968   1.274       .  A
O954       Cd958   2.067       .  S
O955        C966   1.273       .  A
O955       Cd958   2.060       .  S
Zn956       O967   2.008       .  S
Zn956       O969   2.007       .  S
Zn956       O961   1.936       .  S
O957        C968   1.276       .  A
O957       Cd962   2.079       .  S
Cd958       O960   2.060       .  S
Cd958       O961   1.993       .  S
Cd959       O963   2.073       .  S
Cd959       O972   2.059       .  S
Cd959       O961   2.001       .  S
O960        C970   1.273       .  A
O961       Cd962   1.998       .  S
Cd962       O964   2.076       .  S
O963        C970   1.274       .  A
C965       C1044   1.477       .  S
C965        O969   1.273       .  A
C966       C1293   1.466       .  S
C968       C1333   1.478       .  S
C970        C973   1.477       .  S
C971       C1004   1.475       .  S
C971        O972   1.274       .  A
C973        C974   1.411       .  A
C973        C978   1.404       .  A
C974        C975   1.398       .  A
C974       Br990   1.920       .  S
C975        C976   1.404       .  A
C975        H979   1.082       .  S
C976        C980   1.482       .  S
C976        C977   1.410       .  A
C977        C978   1.397       .  A
C977       Br989   1.920       .  S
C978        H981   1.083       .  S
C980        C982   1.401       .  A
C980        C986   1.408       .  A
C982        C983   1.398       .  A
C982        H987   1.082       .  S
C983        C984   1.419       .  A
C983       Br991   1.922       .  S
C984        C985   1.407       .  A
C985        C986   1.397       .  A
C985        H988   1.082       .  S
C986       Br992   1.920       .  S
C993        C994   1.416       .  A
C993        C998   1.408       .  A
C994        C995   1.399       .  A
C994      Br1010   1.922       .  S
C995        C996   1.403       .  A
C996        C997   1.407       .  A
C997        C998   1.394       .  A
C997      Br1009   1.921       .  S
C998       H1001   1.085       .  S
C1000      C1002   1.404       .  A
C1000      C1006   1.409       .  A
C1002      C1003   1.397       .  A
C1002      H1007   1.083       .  S
C1003      C1004   1.411       .  A
C1003     Br1011   1.921       .  S
C1004      C1005   1.404       .  A
C1005      C1006   1.397       .  A
C1005      H1008   1.083       .  S
C1013      C1014   1.411       .  A
C1013      C1018   1.404       .  A
C1014      C1015   1.398       .  A
C1014     Br1030   1.919       .  S
C1015      C1016   1.401       .  A
C1015      H1019   1.084       .  S
C1016      C1020   1.474       .  S
C1016      C1017   1.407       .  A
C1017      C1018   1.399       .  A
C1017     Br1029   1.919       .  S
C1018      H1021   1.084       .  S
C1020      C1022   1.400       .  A
C1020      C1026   1.404       .  A
C1022      C1023   1.400       .  A
C1022      H1027   1.084       .  S
C1023      C1024   1.416       .  A
C1023     Br1031   1.919       .  S
C1024      C1025   1.408       .  A
C1025      C1026   1.397       .  A
C1025      H1028   1.084       .  S
C1026     Br1032   1.919       .  S
C1033      C1034   1.414       .  A
C1033      C1038   1.406       .  A
C1034      C1035   1.399       .  A
C1034     Br1050   1.920       .  S
C1035      C1036   1.401       .  A
C1035      H1039   1.084       .  S
C1036      C1040   1.475       .  S
C1036      C1037   1.406       .  A
C1037      C1038   1.397       .  A
C1037     Br1049   1.920       .  S
C1038      H1041   1.083       .  S
C1040      C1042   1.401       .  A
C1040      C1046   1.406       .  A
C1042      C1043   1.399       .  A
C1042      H1047   1.084       .  S
C1043      C1044   1.412       .  A
C1043     Br1051   1.920       .  S
C1044      C1045   1.406       .  A
C1045      C1046   1.397       .  A
C1045      H1048   1.084       .  S
C1046     Br1052   1.919       .  S
C1053      C1054   1.416       .  A
C1053      C1058   1.406       .  A
C1054      C1055   1.397       .  A
C1054     Br1070   1.922       .  S
C1055      C1056   1.399       .  A
C1055      H1059   1.084       .  S
C1056      C1060   1.473       .  S
C1056      C1057   1.407       .  A
C1057      C1058   1.397       .  A
C1057     Br1069   1.920       .  S
C1058      H1061   1.083       .  S
C1060      C1062   1.402       .  A
C1060      C1066   1.406       .  A
C1062      C1063   1.398       .  A
C1062      H1067   1.085       .  S
C1063      C1064   1.411       .  A
C1063     Br1071   1.920       .  S
C1064      C1065   1.405       .  A
C1065      C1066   1.396       .  A
C1065      H1068   1.084       .  S
C1066     Br1072   1.920       .  S
C1073      C1074   1.414       .  A
C1073      C1078   1.406       .  A
C1074      C1075   1.398       .  A
C1074     Br1090   1.922       .  S
C1075      C1076   1.400       .  A
C1075      H1079   1.084       .  S
C1076      C1080   1.476       .  S
C1076      C1077   1.407       .  A
C1077      C1078   1.400       .  A
C1077     Br1089   1.919       .  S
C1078      H1081   1.083       .  S
C1080      C1082   1.401       .  A
C1080      C1086   1.407       .  A
C1082      C1083   1.399       .  A
C1082      H1087   1.084       .  S
C1083      C1084   1.412       .  A
C1083     Br1091   1.920       .  S
C1084      C1085   1.405       .  A
C1085      C1086   1.398       .  A
C1085      H1088   1.084       .  S
C1086     Br1092   1.919       .  S
C1093      C1094   1.415       .  A
C1093      C1098   1.405       .  A
C1094      C1095   1.401       .  A
C1094     Br1110   1.922       .  S
C1095      C1096   1.402       .  A
C1095      H1099   1.083       .  S
C1097     Br1109   1.919       .  S
C1098      H1101   1.082       .  S
C1100      C1102   1.403       .  A
C1100      C1106   1.407       .  A
C1102      C1103   1.404       .  A
C1102      H1107   1.082       .  S
C1103      C1104   1.417       .  A
C1103     Br1111   1.922       .  S
C1104      C1105   1.409   1_545  A
C1105      C1106   1.400   1_565  A
C1105      H1108   1.082       .  S
C1113      C1114   1.420       .  A
C1113      C1118   1.409       .  A
C1114      C1115   1.402       .  A
C1114     Br1130   1.923       .  S
C1115      C1116   1.404       .  A
C1115      H1119   1.085       .  S
C1116      C1120   1.488       .  S
C1116      C1117   1.408       .  A
C1117      C1118   1.397       .  A
C1117     Br1129   1.920       .  S
C1118      H1121   1.085       .  S
C1120      C1122   1.405       .  A
C1120      C1126   1.411   1_545  A
C1122      C1123   1.401       .  A
C1122      H1127   1.084       .  S
C1123      C1124   1.411       .  A
C1123     Br1131   1.920       .  S
C1124      C1125   1.404   1_545  A
C1125      C1126   1.400       .  A
C1125      H1128   1.084       .  S
C1126     Br1132   1.920       .  S
C1133      C1134   1.416       .  A
C1133      C1138   1.405       .  A
C1134      C1135   1.399       .  A
C1134     Br1150   1.923       .  S
C1135      C1136   1.400       .  A
C1135      H1139   1.084       .  S
C1136      C1140   1.474       .  S
C1136      C1137   1.406       .  A
C1137      C1138   1.397       .  A
C1137     Br1149   1.919       .  S
C1138      H1141   1.084       .  S
C1140      C1142   1.401       .  A
C1140      C1146   1.407       .  A
C1142      C1143   1.399       .  A
C1142      H1147   1.084       .  S
C1143      C1144   1.412       .  A
C1143     Br1151   1.920       .  S
C1144      C1145   1.403       .  A
C1145      C1146   1.397       .  A
C1145      H1148   1.084       .  S
C1146     Br1152   1.919       .  S
C1153      C1154   1.417       .  A
C1153      C1158   1.410       .  A
C1154      C1155   1.400       .  A
C1154     Br1170   1.921       .  S
C1155      C1156   1.402       .  A
C1155      H1159   1.082       .  S
C1156      C1160   1.477       .  S
C1156      C1157   1.405       .  A
C1157      C1158   1.396       .  A
C1157     Br1169   1.921       .  S
C1158      H1161   1.082       .  S
C1160      C1162   1.401       .  A
C1160      C1166   1.408       .  A
C1162      C1163   1.397       .  A
C1162      H1167   1.086       .  S
C1163      C1164   1.411       .  A
C1163     Br1171   1.920       .  S
C1164      C1165   1.404       .  A
C1165      C1166   1.398       .  A
C1165      H1168   1.085       .  S
C1166     Br1172   1.919       .  S
C1173      C1174   1.416       .  A
C1173      C1178   1.407       .  A
C1174      C1175   1.398       .  A
C1174     Br1190   1.922       .  S
C1175      C1176   1.399       .  A
C1175      H1179   1.082       .  S
C1176      C1177   1.405       .  A
C1177      C1178   1.397       .  A
C1178      H1181   1.082       .  S
C1180      C1182   1.399       .  A
C1180      C1186   1.406       .  A
C1182      C1183   1.396       .  A
C1182      H1187   1.082       .  S
C1183      C1184   1.412       .  A
C1183     Br1191   1.920       .  S
C1184      C1185   1.405       .  A
C1185      C1186   1.398       .  A
C1185      H1188   1.082       .  S
C1193      C1194   1.410       .  A
C1193      C1198   1.404       .  A
C1194      C1195   1.398       .  A
C1194     Br1210   1.921       .  S
C1195      C1196   1.401       .  A
C1195      H1199   1.086       .  S
C1196      C1200   1.474       .  S
C1196      C1197   1.407       .  A
C1197      C1198   1.398       .  A
C1197     Br1209   1.919       .  S
C1198      H1201   1.086       .  S
C1200      C1202   1.401       .  A
C1200      C1206   1.405       .  A
C1202      C1203   1.399       .  A
C1202      H1207   1.084       .  S
C1203      C1204   1.413       .  A
C1203     Br1211   1.920   1_455  S
C1204      C1205   1.408       .  A
C1205      C1206   1.398       .  A
C1205      H1208   1.084       .  S
C1206     Br1212   1.919       .  S
C1213      C1214   1.413       .  A
C1213      C1218   1.406       .  A
C1214      C1215   1.397       .  A
C1214     Br1230   1.921       .  S
C1215      C1216   1.400       .  A
C1215      H1219   1.084       .  S
C1216      C1220   1.471       .  S
C1216      C1217   1.405       .  A
C1217      C1218   1.397       .  A
C1217     Br1229   1.919       .  S
C1218      H1221   1.084       .  S
C1220      C1222   1.401       .  A
C1220      C1226   1.405       .  A
C1222      C1223   1.399       .  A
C1222      H1227   1.084       .  S
C1223      C1224   1.412       .  A
C1223     Br1231   1.921       .  S
C1224      C1225   1.404       .  A
C1225      C1226   1.395       .  A
C1225      H1228   1.084       .  S
C1226     Br1232   1.919       .  S
C1233      C1234   1.414       .  A
C1233      C1238   1.406       .  A
C1234     Br1250   1.921       .  S
C1235      C1236   1.400       .  A
C1235      H1239   1.085       .  S
C1236      C1240   1.467       .  S
C1237      C1238   1.393       .  A
C1237     Br1249   1.919       .  S
C1238      H1241   1.085       .  S
C1240      C1242   1.400       .  A
C1240      C1246   1.403       .  A
C1242      C1243   1.399       .  A
C1242      H1247   1.085       .  S
C1243      C1244   1.413       .  A
C1243     Br1251   1.920       .  S
C1244      C1245   1.406       .  A
C1245      C1246   1.392       .  A
C1245      H1248   1.085       .  S
C1246     Br1252   1.920       .  S
C1253      C1254   1.418       .  A
C1253      C1258   1.407       .  A
C1254      C1255   1.396       .  A
C1254     Br1270   1.923       .  S
C1255      C1256   1.398       .  A
C1255      H1259   1.083       .  S
C1256      C1260   1.472       .  S
C1256      C1257   1.406       .  A
C1257      C1258   1.397       .  A
C1257     Br1269   1.920       .  S
C1258      H1261   1.082       .  S
C1260      C1262   1.401       .  A
C1260      C1266   1.409       .  A
C1262      C1263   1.395       .  A
C1262      H1267   1.083       .  S
C1263      C1264   1.406       .  A
C1263     Br1271   1.919       .  S
C1264      C1265   1.401       .  A
C1265      C1266   1.398       .  A
C1265      H1268   1.083       .  S
C1266     Br1272   1.919       .  S
C1273      C1274   1.416       .  A
C1273      C1278   1.407       .  A
C1274      C1275   1.399       .  A
C1274     Br1290   1.920       .  S
C1275      C1276   1.401       .  A
C1275      H1279   1.084   1_455  S
C1276      C1280   1.481   1_455  S
C1276      C1277   1.408       .  A
C1277      C1278   1.399       .  A
C1277     Br1289   1.920       .  S
C1278      H1281   1.084       .  S
C1280      C1282   1.401       .  A
C1280      C1286   1.409       .  A
C1282      C1283   1.397       .  A
C1282      H1287   1.083       .  S
C1283      C1284   1.414       .  A
C1283     Br1291   1.920       .  S
C1284      C1285   1.405       .  A
C1285      C1286   1.400       .  A
C1285      H1288   1.083       .  S
C1286     Br1292   1.919       .  S
C1293      C1294   1.409       .  A
C1293      C1298   1.403       .  A
C1294      C1295   1.396       .  A
C1294     Br1310   1.921       .  S
C1295      C1296   1.401       .  A
C1295      H1299   1.082       .  S
C1296      C1300   1.470       .  S
C1296      C1297   1.406       .  A
C1297      C1298   1.397       .  A
C1297     Br1309   1.918       .  S
C1298      H1301   1.082       .  S
C1300      C1302   1.399       .  A
C1300      C1306   1.406       .  A
C1302      C1303   1.395       .  A
C1302      H1307   1.084       .  S
C1303      C1304   1.412       .  A
C1303     Br1311   1.921       .  S
C1304      C1305   1.404       .  A
C1305      C1306   1.397       .  A
C1305      H1308   1.084       .  S
C1306     Br1312   1.919       .  S
C1313      C1314   1.409       .  A
C1313      C1318   1.403       .  A
C1314      C1315   1.403       .  A
C1314     Br1330   1.918       .  S
C1315      C1316   1.404       .  A
C1315      H1319   1.083       .  S
C1316      C1320   1.475       .  S
C1316      C1317   1.406       .  A
C1317      C1318   1.393       .  A
C1317     Br1329   1.920       .  S
C1318      H1321   1.084       .  S
C1320      C1326   1.405       .  A
C1322      C1323   1.400       .  A
C1322      H1327   1.082       .  S
C1323      C1324   1.422       .  A
C1323     Br1331   1.923       .  S
C1324      C1325   1.410       .  A
C1325      H1328   1.081       .  S
C1326     Br1332   1.919       .  S
C1333      C1334   1.413       .  A
C1333      C1338   1.404       .  A
C1334      C1335   1.401       .  A
C1334     Br1350   1.921       .  S
C1335      C1336   1.402       .  A
C1335      H1339   1.084       .  S
C1336      C1340   1.480       .  S
C1336      C1337   1.407       .  A
C1337      C1338   1.400       .  A
C1337     Br1349   1.917       .  S
C1338      H1341   1.084       .  S
C1340      C1342   1.399       .  A
C1340      C1346   1.406       .  A
C1342      C1343   1.399       .  A
C1342      H1347   1.084       .  S
C1343      C1344   1.417       .  A
C1343     Br1351   1.916       .  S
C1344      C1345   1.409       .  A
C1345      C1346   1.403       .  A
C1345      H1348   1.084       .  S
C1346     Br1352   1.917       .  S
C1353      C1354   1.409       .  A
C1353      C1358   1.404       .  A
C1354      C1355   1.400       .  A
C1354     Br1370   1.916       .  S
C1355      C1356   1.402       .  A
C1355      H1359   1.084       .  S
C1356      C1360   1.478   1_556  S
C1356      C1357   1.406       .  A
C1357      C1358   1.399       .  A
C1357     Br1369   1.918       .  S
C1358      H1361   1.084       .  S
C1360      C1366   1.408   1_554  A
C1362      C1363   1.400       .  A
C1362      H1367   1.081       .  S
C1363      C1364   1.417       .  A
C1363     Br1371   1.921       .  S
C1364      C1365   1.407       .  A
C1365      H1368   1.082       .  S
C1366     Br1372   1.919       .  S
C1373      C1374   1.414       .  A
C1373      C1378   1.408       .  A
C1374      C1375   1.403       .  A
C1374     Br1390   1.920       .  S
C1375      C1376   1.404       .  A
C1375      H1379   1.083       .  S
C1376      C1380   1.481       .  S
C1376      C1377   1.406       .  A
C1377      C1378   1.399       .  A
C1377     Br1389   1.920       .  S
C1378      H1381   1.083       .  S
C1380      C1382   1.396       .  A
C1380      C1386   1.408       .  A
C1382      C1383   1.396       .  A
C1382      H1387   1.084       .  S
C1383      C1384   1.423       .  A
C1383     Br1391   1.926       .  S
C1384      C1385   1.409       .  A
C1385      C1386   1.404       .  A
C1385      H1388   1.083       .  S
C1386     Br1392   1.918       .  S
C1393      C1394   1.422       .  A
C1393      C1398   1.411       .  A
C1394      C1395   1.401       .  A
C1394     Br1410   1.923       .  S
C1395      C1396   1.400       .  A
C1395      H1399   1.084       .  S
C1396      C1400   1.479       .  S
C1396      C1397   1.404       .  A
C1397      C1398   1.398       .  A
C1397     Br1409   1.919       .  S
C1398      H1401   1.083       .  S
C1400      C1402   1.404       .  A
C1400      C1406   1.409       .  A
C1402      C1403   1.399       .  A
C1402      H1407   1.083       .  S
C1403      C1404   1.406       .  A
C1403     Br1411   1.918       .  S
C1404      C1405   1.402       .  A
C1405      C1406   1.400       .  A
C1405      H1408   1.083       .  S
C1406     Br1412   1.918       .  S
C1413      C1414   1.411       .  A
C1413      C1418   1.403       .  A
C1414      C1415   1.397       .  A
C1414     Br1430   1.920       .  S
C1415      C1416   1.401       .  A
C1415      H1419   1.084       .  S
C1416      C1420   1.474       .  S
C1416      C1417   1.408       .  A
C1417      C1418   1.398       .  A
C1417     Br1429   1.919       .  S
C1418      H1421   1.084       .  S
C1420      C1422   1.401       .  A
C1420      C1426   1.405       .  A
C1422      C1423   1.398       .  A
C1422      H1427   1.085       .  S
C1423      C1424   1.413       .  A
C1423     Br1431   1.922       .  S
C1424      C1425   1.406       .  A
C1425      C1426   1.398       .  A
C1425      H1428   1.084       .  S
C1426     Br1432   1.918       .  S
C1433      C1434   1.415       .  A
C1433      C1438   1.405       .  A
C1434      C1435   1.398       .  A
C1434     Br1450   1.923       .  S
C1435      H1439   1.082       .  S
C1436      C1440   1.474       .  S
C1436      C1437   1.406       .  A
C1437     Br1449   1.919   1_655  S
C1438      H1441   1.083   1_655  S
C1440      C1442   1.402       .  A
C1440      C1446   1.404       .  A
C1442      C1443   1.401       .  A
C1442      H1447   1.084       .  S
C1443      C1444   1.413       .  A
C1443     Br1451   1.919       .  S
C1444      C1445   1.407       .  A
C1445      C1446   1.394       .  A
C1445      H1448   1.084       .  S
C1446     Br1452   1.920       .  S
C1453      C1454   1.414   1_545  A
C1453      C1458   1.407   1_545  A
C1454      C1455   1.397       .  A
C1454     Br1470   1.921   1_565  S
C1455      C1456   1.400       .  A
C1455      H1459   1.084       .  S
C1456      C1460   1.473       .  S
C1456      C1457   1.405       .  A
C1457      C1458   1.398       .  A
C1457     Br1469   1.919       .  S
C1458      H1461   1.084       .  S
C1460      C1462   1.401       .  A
C1460      C1466   1.405       .  A
C1462      C1463   1.399       .  A
C1462      H1467   1.083       .  S
C1463      C1464   1.414       .  A
C1463     Br1471   1.921       .  S
C1464      C1465   1.405       .  A
C1465      C1466   1.395       .  A
C1465      H1468   1.082       .  S
C1466     Br1472   1.919       .  S
C1473      C1474   1.413       .  A
C1473      C1478   1.405       .  A
C1474      C1475   1.396       .  A
C1474     Br1490   1.918       .  S
C1475      H1479   1.082       .  S
C1476      C1480   1.469       .  S
C1476      C1477   1.406       .  A
C1477     Br1489   1.920       .  S
C1478      H1481   1.082       .  S
C1480      C1482   1.400       .  A
C1480      C1486   1.406       .  A
C1482      C1483   1.396       .  A
C1482      H1487   1.084       .  S
C1483      C1484   1.412       .  A
C1483     Br1491   1.919       .  S
C1484      C1485   1.404       .  A
C1485      C1486   1.395       .  A
C1485      H1488   1.084       .  S
C1486     Br1492   1.920       .  S
C1493      C1494   1.409       .  A
C1493      C1498   1.402       .  A
C1494      C1495   1.396       .  A
C1494     Br1510   1.919       .  S
C1495      C1496   1.401       .  A
C1495      H1499   1.083       .  S
C1496      C1500   1.468       .  S
C1496      C1497   1.406       .  A
C1497      C1498   1.395       .  A
C1497     Br1509   1.919       .  S
C1498      H1501   1.083       .  S
C1500      C1502   1.400       .  A
C1500      C1506   1.406       .  A
C1502      C1503   1.396       .  A
C1502      H1507   1.082       .  S
C1503      C1504   1.411       .  A
C1503     Br1511   1.918       .  S
C1504      C1505   1.404       .  A
C1505      C1506   1.395       .  A
C1505      H1508   1.082       .  S
C1506     Br1512   1.919       .  S
C1513      C1514   1.413       .  A
C1513      C1518   1.406       .  A
C1514      C1515   1.400       .  A
C1514     Br1530   1.916       .  S
C1515      C1516   1.401       .  A
C1515      H1519   1.084       .  S
C1516      C1520   1.477       .  S
C1516      C1517   1.406       .  A
C1517      C1518   1.399       .  A
C1517     Br1529   1.918       .  S
C1518      H1521   1.083       .  S
C1520      C1522   1.401       .  A
C1520      C1526   1.406       .  A
C1522      C1523   1.399       .  A
C1522      H1527   1.084       .  S
C1523      C1524   1.414       .  A
C1523     Br1531   1.921       .  S
C1524      C1525   1.408       .  A
C1525      C1526   1.400       .  A
C1525      H1528   1.084       .  S
C1526     Br1532   1.918       .  S
C1533      C1534   1.411       .  A
C1533      C1538   1.403       .  A
C1534      C1535   1.405       .  A
C1534     Br1550   1.918       .  S
C1535      C1536   1.404       .  A
C1535      H1539   1.082       .  S
C1536      C1540   1.478       .  S
C1536      C1537   1.406       .  A
C1537      C1538   1.395       .  A
C1537     Br1549   1.920       .  S
C1538      H1541   1.083       .  S
C1540      C1542   1.400       .  A
C1540      C1546   1.404       .  A
C1542      C1543   1.400       .  A
C1542      H1547   1.084       .  S
C1543      C1544   1.419       .  A
C1543     Br1551   1.923       .  S
C1544      C1545   1.411       .  A
C1545      C1546   1.399       .  A
C1545      H1548   1.084       .  S
C1546     Br1552   1.918       .  S
C1553      C1554   1.420       .  A
C1553      C1558   1.409       .  A
C1554      C1555   1.397       .  A
C1554     Br1570   1.924       .  S
C1555      H1559   1.083       .  S
C1556      C1560   1.475       .  S
C1556      C1557   1.405       .  A
C1557     Br1569   1.918       .  S
C1558      H1561   1.082       .  S
C1560      C1562   1.403       .  A
C1560      C1566   1.407       .  A
C1562      C1563   1.403       .  A
C1562      H1567   1.082       .  S
C1563      C1564   1.409       .  A
C1563     Br1571   1.915       .  S
C1564      C1565   1.401       .  A
C1565      C1566   1.394       .  A
C1565      H1568   1.082       .  S
