geometry optimzed in LAMMPS
_audit_creation_date              2020-11-30 
_audit_creation_method            'lammps2cif' 
_symmetry_space_group_name_H-M    'P1' 
_symmetry_Int_Tables_number       1 
_symmetry_cell_setting            triclinic 
loop_ 
_symmetry_equiv_pos_as_xyz 
  x,y,z 
_cell_length_a                    35.65584924 
_cell_length_b                    36.305864384064115 
_cell_length_c                    45.06209203533212 
_cell_angle_alpha                 90.20395595321557 
_cell_angle_beta                  90.69537481302237 
_cell_angle_gamma                 89.64658120148158 
loop_ 
_atom_site_label 
_atom_site_type_symbol 
_atom_site_fract_x 
_atom_site_fract_y 
_atom_site_fract_z 
_atom_site_charge 
C1          C  0.61124649  0.99546803  0.99547870     0.80500
N2          N  0.63073345  0.99433730  0.02157713    -0.77800
C3          C  0.66822222  0.98776750  0.02175267     0.83000
N4          N  0.67261799  0.93177616  0.49669458    -0.77700
C5          C  0.65310614  0.92668739  0.47099816     0.83100
N6          N  0.61629978  0.91751518  0.47185564    -0.79400
In7        In  0.84143644  0.94230008  0.25083333     1.36900
C8          C  0.88671715  0.00002222  0.25594637     0.77900
O9          O  0.82463625  0.95888606  0.29626833    -0.60500
O10         O  0.79198907  0.91766567  0.27464682    -0.51400
C11         C  0.80210036  0.95371826  0.20119036     0.70600
O12         O  0.83715451  0.94918739  0.20145421    -0.46300
C13         C  0.88510234  0.88227612  0.24809569     0.75300
O14         O  0.85278959  0.00362364  0.24843390    -0.58200
O15         O  0.87356546  0.89563004  0.27209882    -0.48300
O16         O  0.89668876  0.96764910  0.26186698    -0.54600
C17         C  0.79733211  0.93711416  0.29761047     0.85500
O18         O  0.78698383  0.95202792  0.22628950    -0.56500
O19         O  0.87106378  0.89697222  0.22524061    -0.59800
In20       In  0.10505138  0.96070632  0.24921877     1.36900
C21         C  0.06191413  0.02119061  0.25179032     0.77900
O22         O  0.15489973  0.98348712  0.22506599    -0.60500
O23         O  0.12228082  0.94198082  0.20393583    -0.51400
C24         C  0.14484068  0.95090683  0.29899231     0.70600
O25         O  0.10952035  0.95049546  0.29830118    -0.46300
C26         C  0.05996380  0.90254502  0.24479947     0.75300
O27         O  0.07555949  0.00607139  0.27456681    -0.58200
O28         O  0.04976501  0.93483629  0.23863416    -0.48300
O29         O  0.07330666  0.00783231  0.22773551    -0.54600
C30         C  0.14994139  0.96333771  0.20248569     0.85500
O31         O  0.15989193  0.95693781  0.27433297    -0.56500
O32         O  0.09393327  0.89932476  0.25241704    -0.59800
C33         C  0.34868442  0.00189396  0.00273212     0.80500
N34         N  0.31661688  0.90646160  0.47842009    -0.77800
C35         C  0.27893009  0.91206958  0.47807479     0.83000
N36         N  0.27532890  0.98289473  0.00369137    -0.77700
C37         C  0.29443002  0.98750532  0.02963611     0.83100
N38         N  0.33122429  0.99703486  0.02913746    -0.79400
C39         C  0.99907615  0.58477358  0.49692049     0.80500
N40         N  0.00358195  0.60297001  0.47091014    -0.77800
C41         C  0.00965773  0.63991106  0.47079973     0.83000
N42         N  0.01110480  0.65869884  0.49692064    -0.77700
C43         C  0.99748402  0.62956016  0.02623439     0.83100
N44         N  0.98797085  0.59336518  0.02620956    -0.79400
In45       In  0.98182784  0.81943611  0.24607462     1.36900
C46         C  0.91614288  0.85554722  0.24715172     0.77900
O47         O  0.99747811  0.81344387  0.29432541    -0.60500
O48         O  0.98149056  0.76539200  0.27071528    -0.51400
C49         C  0.98972706  0.77497812  0.19952798     0.70600
O50         O  0.96590451  0.76955494  0.21944095    -0.46300
C51         C  0.03342041  0.87196325  0.24410054     0.75300
O52         O  0.93063150  0.84453732  0.22336329    -0.58200
O53         O  0.04165045  0.83946782  0.25177710    -0.48300
O54         O  0.93328677  0.84522147  0.27024199    -0.54600
C55         C  0.99224920  0.77918998  0.29500532     0.85500
O56         O  0.00945010  0.80336659  0.20320878    -0.56500
O57         O  0.99969000  0.87687245  0.23657985    -0.59800
C58         C  0.95490856  0.32775756  0.50205012     0.80500
N59         N  0.93463863  0.29932469  0.02926697    -0.77800
C60         C  0.93238315  0.26186509  0.02882880     0.83000
N61         N  0.94489850  0.25369434  0.50264846    -0.77700
C62         C  0.94948246  0.27115673  0.47643284     0.83100
N63         N  0.95464158  0.30823480  0.47619257    -0.79400
In64       In  0.96489675  0.08277818  0.25462563     1.36900
C65         C  0.03120513  0.04817422  0.25308217     0.77900
O66         O  0.98153772  0.13164233  0.28254897    -0.60500
O67         O  0.93934608  0.09607456  0.29872386    -0.51400
C68         C  0.95267153  0.12196641  0.20516923     0.70600
O69         O  0.95509153  0.08734851  0.20529080    -0.46300
C70         C  0.91348231  0.03024141  0.25650939     0.75300
O71         O  0.01504401  0.06037871  0.23016747    -0.58200
O72         O  0.94761913  0.02470831  0.26222364    -0.48300
O73         O  0.01572667  0.05715465  0.27699400    -0.54600
C74         C  0.95887671  0.12444821  0.30302590     0.85500
O75         O  0.95636985  0.13674020  0.23038130    -0.56500
O76         O  0.90496354  0.06311503  0.25037779    -0.59800
C77         C  0.94458178  0.20325829  0.41879875     0.20700
C78         C  0.93731582  0.16855317  0.40618478    -0.39200
C79         C  0.94513594  0.16502681  0.37585563     0.19600
C80         C  0.95970335  0.19371171  0.35952144     0.22300
C81         C  0.96649088  0.22853974  0.37206118    -0.39700
C82         C  0.95820005  0.23222402  0.40229083     0.21100
N83         N  0.93986723  0.21352072  0.44718044    -0.33000
C84         C  0.95013804  0.24940242  0.44875375    -0.10500
C85         C  0.96171724  0.26208260  0.42115838    -0.29400
N86         N  0.96635118  0.18290147  0.33151043    -0.45900
C87         C  0.95559368  0.14722818  0.32990429    -0.05200
C88         C  0.94186895  0.13513593  0.35702691    -0.22600
H89         H  0.92657318  0.14592413  0.41907453     0.19200
H90         H  0.97769091  0.25102680  0.35926846     0.18000
H91         H  0.97175529  0.28928483  0.41573307     0.14300
H92         H  0.93184154  0.10791073  0.36240902     0.14200
H93         H  0.93015066  0.19711211  0.46442608     0.32300
H94         H  0.97761220  0.19875059  0.31452732     0.35100
C95         C  0.93381331  0.19450177  0.08697633     0.20700
C96         C  0.93930925  0.15936692  0.09930157    -0.39200
C97         C  0.94049396  0.15779375  0.13040802     0.19600
C98         C  0.93615746  0.18881880  0.14799666     0.22300
C99         C  0.93005589  0.22396795  0.13565619    -0.39700
C100        C  0.92929510  0.22561263  0.10443494     0.21100
N101        N  0.93419807  0.20345161  0.05805240    -0.33000
C102        C  0.93030785  0.24061930  0.05682989    -0.10500
C103        C  0.92682659  0.25542607  0.08539474    -0.29400
N104        N  0.93970654  0.18006175  0.17693159    -0.45900
C105        C  0.94633032  0.14322293  0.17770310    -0.05200
C106        C  0.94695539  0.12838125  0.14911906    -0.22600
H107        H  0.94348089  0.13514520  0.08563466     0.19200
H108        H  0.92721767  0.24836741  0.14933501     0.18000
H109        H  0.92426221  0.28419428  0.09145950     0.14300
H110        H  0.95210786  0.09999861  0.14287085     0.14200
H111        H  0.93812244  0.18539429  0.04023355     0.32300
H112        H  0.93804173  0.19803630  0.19502553     0.35100
C113        C  0.96108118  0.48086582  0.01589460     0.20700
C114        C  0.95395412  0.44997747  0.03362442    -0.39200
C115        C  0.94897975  0.41655071  0.01834218     0.19600
C116        C  0.95088323  0.41416966  0.98773645     0.22300
C117        C  0.98189327  0.45289670  0.46758430    -0.39700
C118        C  0.96266203  0.47847816  0.98527266     0.21100
N119        N  0.96794235  0.51548729  0.02508277    -0.33000
C120        C  0.99288352  0.54454135  0.49697798    -0.10500
C121        C  0.99250095  0.52169661  0.47192199    -0.29400
N122        N  0.96872366  0.38726844  0.47668756    -0.45900
C123        C  0.96159828  0.36788981  0.50167860    -0.05200
C124        C  0.94327712  0.38135317  0.02884545    -0.22600
H125        H  0.95304202  0.45171847  0.05758694     0.19200
H126        H  0.98465918  0.45054118  0.44375728     0.18000
H127        H  0.99654217  0.52961424  0.44905107     0.14300
H128        H  0.94111440  0.37293404  0.05177255     0.14200
H129        H  0.96881423  0.52495802  0.04700434     0.32300
H130        H  0.97005820  0.37712251  0.45499654     0.35100
C131        C  0.99968500  0.71114221  0.35193123     0.20700
C132        C  0.99646764  0.67618883  0.36483463    -0.39200
C133        C  0.00528320  0.67420991  0.39522174     0.19600
C134        C  0.01639772  0.70472739  0.41152166     0.22300
C135        C  0.02023337  0.73956030  0.39851398    -0.39700
C136        C  0.01131876  0.74155403  0.36814564     0.21100
N137        N  0.99162019  0.72056412  0.32373007    -0.33000
C138        C  0.99815084  0.75723246  0.32202431    -0.10500
C139        C  0.01054928  0.77128825  0.34922793    -0.29400
N140        N  0.02052078  0.69615529  0.44037966    -0.45900
C141        C  0.01192608  0.65992032  0.44247913    -0.05200
C142        C  0.00269655  0.64519756  0.41471120    -0.22600
H143        H  0.98687249  0.65248208  0.35231693     0.19200
H144        H  0.02850086  0.76355283  0.41127077     0.18000
H145        H  0.01753519  0.79954735  0.35451742     0.14300
H146        H  0.99355022  0.61746747  0.40970058     0.14200
H147        H  0.98193572  0.70322693  0.30677465     0.32300
H148        H  0.02767848  0.71409303  0.45767674     0.35100
C149        C  0.99191289  0.66695609  0.09960762     0.20700
C150        C  0.97973216  0.66958477  0.12907494    -0.39200
C151        C  0.98821775  0.70271202  0.14379574     0.19600
C152        C  0.00787147  0.73075472  0.13034639     0.22300
C153        C  0.02010422  0.72807489  0.10097498    -0.41900
C154        C  0.01111768  0.69526075  0.08613062     0.21100
N155        N  0.98572988  0.63923983  0.08030331    -0.33000
C156        C  0.00066494  0.65029746  0.05428439    -0.10500
C157        C  0.01684992  0.68501331  0.05711169    -0.29400
N158        N  0.01164683  0.75972462  0.14873518    -0.45900
C159        C  0.99383166  0.75026751  0.17392577    -0.05200
C160        C  0.97890976  0.71492129  0.17177195    -0.22600
H161        H  0.96397608  0.64788046  0.13949819     0.19200
H162        H  0.03470127  0.75030536  0.09021579     0.18000
H163        H  0.03009469  0.70103140  0.03999417     0.14300
H164        H  0.96296544  0.70040033  0.18828486     0.14200
H165        H  0.97118519  0.61490256  0.08429781     0.32300
H166        H  0.02474134  0.78469367  0.14420156     0.35100
C167        C  0.24539093  0.92182277  0.40328213     0.20700
C168        C  0.24751654  0.92615467  0.37236553    -0.39200
C169        C  0.21328396  0.93317313  0.35759951     0.19600
C170        C  0.17957907  0.93528717  0.37248189     0.22300
C171        C  0.17745461  0.93081913  0.40327246    -0.39700
C172        C  0.21159963  0.92411616  0.41800716     0.21100
N173        N  0.27389989  0.91637356  0.42266065    -0.33000
C174        C  0.25797846  0.91547780  0.44985475    -0.10500
C175        C  0.21920333  0.92000441  0.44776565    -0.29400
N176        N  0.15103214  0.94201755  0.35352551    -0.45900
C177        C  0.16663484  0.94437654  0.32635430    -0.05200
C178        C  0.20540518  0.93912878  0.32794470    -0.22600
H179        H  0.27387055  0.92466753  0.36073769     0.19200
H180        H  0.15117497  0.93282370  0.41495800     0.18000
H181        H  0.19932158  0.92103425  0.46571674     0.14300
H182        H  0.22504922  0.93930110  0.30982454     0.14200
H183        H  0.30240142  0.91419712  0.41776381     0.32300
H184        H  0.12272149  0.94479820  0.35872267     0.35100
C185        C  0.22003329  0.97729565  0.14748510     0.20700
C186        C  0.25351979  0.99051606  0.13532396    -0.39200
C187        C  0.25834890  0.98366035  0.10486322     0.19600
C188        C  0.23169105  0.96524206  0.08796981     0.22300
C189        C  0.19876141  0.95133707  0.10022486    -0.39700
C190        C  0.19403932  0.95802329  0.13056923     0.21100
N191        N  0.20782669  0.98161941  0.17545005    -0.33000
C192        C  0.17401574  0.96472219  0.17623483    -0.10500
C193        C  0.16462620  0.94948875  0.14874231    -0.29400
N194        N  0.24154718  0.96408558  0.05936174    -0.45900
C195        C  0.27487833  0.98163746  0.05782648    -0.05200
C196        C  0.28653338  0.99402239  0.08583464    -0.22600
H197        H  0.27386062  0.00571245  0.14842921     0.19200
H198        H  0.17790031  0.93708479  0.08692850     0.18000
H199        H  0.13921319  0.93498231  0.14268821     0.14300
H200        H  0.31151389  0.00953289  0.09132107     0.14200
H201        H  0.22146167  0.99538728  0.19284241     0.32300
H202        H  0.22624092  0.95238282  0.04183448     0.35100
C203        C  0.51476078  0.01116996  0.01195347     0.20700
C204        C  0.48328564  0.01488939  0.03013285    -0.39200
C205        C  0.44845146  0.01428399  0.01538745     0.19600
C206        C  0.44533553  0.01086867  0.98484391     0.22300
C207        C  0.47683519  0.00819795  0.96660870    -0.39700
C208        C  0.51162455  0.00815358  0.98139003     0.21100
N209        N  0.55071125  0.00777698  0.02074409    -0.33000
C210        C  0.57057591  0.00236082  0.99561792    -0.10500
C211        C  0.54720357  0.00266275  0.97058486    -0.29400
N212        N  0.40927284  0.00763337  0.97645965    -0.45900
C213        C  0.38926779  0.00862603  0.00184244    -0.05200
C214        C  0.41268504  0.01314012  0.02658968    -0.22600
H215        H  0.48568087  0.01627226  0.05407850     0.19200
H216        H  0.47437462  0.00453295  0.94281807     0.18000
H217        H  0.54343954  0.89964764  0.45138569     0.14300
H218        H  0.40478950  0.01347576  0.04970744     0.14200
H219        H  0.56095240  0.00819348  0.04253886     0.32300
H220        H  0.38718109  0.89405381  0.45806206     0.35100
C221        C  0.72966267  0.92217194  0.35422898     0.20700
C222        C  0.69708105  0.90856051  0.36750643    -0.39200
C223        C  0.69056890  0.92081487  0.39663975     0.19600
C224        C  0.71504679  0.94420784  0.41144264     0.22300
C225        C  0.74715418  0.95814118  0.39809390    -0.39700
C226        C  0.75336896  0.94631118  0.36901019     0.21100
N227        N  0.74237370  0.91503733  0.32675501    -0.33000
C228        C  0.77408163  0.93521058  0.32421600    -0.10500
C229        C  0.78179154  0.95491172  0.35008671    -0.29400
N230        N  0.70422401  0.94982247  0.43947437    -0.45900
C231        C  0.67242663  0.93014906  0.44261192    -0.05200
C232        C  0.66262161  0.91204166  0.41628516    -0.22600
H233        H  0.67839121  0.88968423  0.35612917     0.19200
H234        H  0.76618438  0.97652758  0.40965181     0.18000
H235        H  0.80504992  0.97327336  0.35439083     0.14300
H236        H  0.63929930  0.89359507  0.41252474     0.14200
H237        H  0.73010736  0.89798014  0.31069957     0.32300
H238        H  0.71803334  0.96552691  0.45567037     0.35100
C239        C  0.70246037  0.98159943  0.09640581     0.20700
C240        C  0.70059428  0.98018572  0.12747559    -0.39200
C241        C  0.73453529  0.97232278  0.14230036     0.19600
C242        C  0.76774880  0.96649550  0.12730619     0.22300
C243        C  0.76962699  0.96805520  0.09631120    -0.39700
C244        C  0.73575078  0.97581330  0.08153441     0.21100
N245        N  0.67401475  0.98734956  0.07708011    -0.33000
C246        C  0.68946366  0.98504863  0.04978338    -0.10500
C247        C  0.72788910  0.97807763  0.05169668    -0.29400
N248        N  0.79599860  0.95925101  0.14638780    -0.45900
C249        C  0.78067332  0.96037052  0.17372296    -0.05200
C250        C  0.74241640  0.96844069  0.17214067    -0.22600
H251        H  0.67460732  0.98444863  0.13920580     0.19200
H252        H  0.79549164  0.96320932  0.08454340     0.18000
H253        H  0.74731037  0.97433903  0.03363736     0.14300
H254        H  0.72305496  0.97106297  0.19034927     0.14200
H255        H  0.64585581  0.99188510  0.08211730     0.32300
H256        H  0.82397896  0.95372696  0.14114153     0.35100
C257        C  0.59897116  0.91366184  0.49835815     0.80500
N258        N  0.61892870  0.91814874  0.52403454    -0.77800
C259        C  0.65584320  0.92712824  0.52325810     0.83000
N260        N  0.68611378  0.98222799  0.99576081    -0.77700
C261        C  0.66696301  0.98287843  0.96962922     0.83100
N262        N  0.62939507  0.98945002  0.96947744    -0.79400
In263      In  0.84664072  0.94136990  0.74620090     1.36900
C264        C  0.88993563  0.00046944  0.74392372     0.77900
O265        O  0.84157862  0.95386257  0.79473680    -0.60500
O266        O  0.79206287  0.93983667  0.77078219    -0.51400
C267        C  0.80240917  0.94038358  0.69853922     0.70600
O268        O  0.82924589  0.96255941  0.70149647    -0.46300
C269        C  0.89009803  0.88110718  0.74788979     0.75300
O270        O  0.85539543  0.00286867  0.74921988    -0.58200
O271        O  0.87678723  0.89561288  0.77088207    -0.48300
O272        O  0.90175671  0.96832786  0.73895862    -0.54600
C273        C  0.80668843  0.94881886  0.79532825     0.85500
O274        O  0.79818622  0.91854168  0.71994735    -0.56500
O275        O  0.87889756  0.89548549  0.72402724    -0.59800
In276      In  0.10263200  0.95986723  0.75482190     1.36900
C277        C  0.05889385  0.01953944  0.75544426     0.77900
O278        O  0.15633722  0.94583756  0.73149975    -0.60500
O279        O  0.10775829  0.95742029  0.70541936    -0.51400
C280        C  0.14599114  0.96892718  0.80244305     0.70600
O281        O  0.11960225  0.94599537  0.80131500    -0.46300
C282        C  0.05851056  0.90091839  0.75435803     0.75300
O283        O  0.06208226  0.99778073  0.77700861    -0.58200
O284        O  0.04644044  0.93337777  0.75245386    -0.48300
O285        O  0.08053319  0.01273288  0.73413440    -0.54600
C286        C  0.14192382  0.94840344  0.70593879     0.85500
O287        O  0.15033540  0.98746757  0.77911576    -0.56500
O288        O  0.09359179  0.89804803  0.75698604    -0.59800
C289        C  0.33576794  0.90448787  0.50466183     0.80500
N290        N  0.32905377  0.99775448  0.97690342    -0.77800
C291        C  0.29233218  0.98835072  0.97732785     0.83000
N292        N  0.26051633  0.91586597  0.50410121    -0.77700
C293        C  0.27937375  0.91415231  0.53038160     0.83100
N294        N  0.31707026  0.90855369  0.53059950    -0.79400
C295        C  0.98332953  0.57486575  0.00013427     0.80500
N296        N  0.98745752  0.59303931  0.97403048    -0.77800
C297        C  0.99687037  0.62926487  0.97388523     0.83000
N298        N  0.00208460  0.64727648  0.00003842    -0.77700
C299        C  0.00608834  0.64089719  0.52303367     0.83100
N300        N  0.99995542  0.60395362  0.52291087    -0.79400
In301      In  0.98389873  0.81512929  0.75155275     1.36900
C302        C  0.91985275  0.85314622  0.74890508     0.77900
O303        O  0.00791390  0.80316928  0.79704589    -0.60500
O304        O  0.97102652  0.76412222  0.77788499    -0.51400
C305        C  0.99378011  0.77368480  0.70331848     0.70600
O306        O  0.96982753  0.76646608  0.72270402    -0.46300
C307        C  0.03297965  0.86963619  0.75348998     0.75300
O308        O  0.93703486  0.84287434  0.72603697    -0.58200
O309        O  0.04350993  0.83635071  0.75215530    -0.48300
O310        O  0.93335536  0.84100698  0.77293215    -0.54600
C311        C  0.99138489  0.77286996  0.79974339     0.85500
O312        O  0.01316834  0.80185187  0.70869440    -0.56500
O313        O  0.99805863  0.87455772  0.75383502    -0.59800
C314        C  0.93866172  0.31839718  0.00349999     0.80500
N315        N  0.95056648  0.30981472  0.52827426    -0.77800
C316        C  0.94554478  0.27271090  0.52859739     0.83000
N317        N  0.93414188  0.24370854  0.00240155    -0.77700
C318        C  0.93826486  0.26255473  0.97663218     0.83100
N319        N  0.94069948  0.29981178  0.97735409    -0.79400
In320      In  0.96509643  0.08553858  0.74954504     1.36900
C321        C  0.02894304  0.04734431  0.75431358     0.77900
O322        O  0.98168654  0.13213937  0.77988539    -0.60500
O323        O  0.93609802  0.09848753  0.79246671    -0.51400
C324        C  0.95634327  0.12870226  0.70208650     0.70600
O325        O  0.94638851  0.09557532  0.70247194    -0.46300
C326        C  0.91532546  0.03187501  0.74462743     0.75300
O327        O  0.02116608  0.06622541  0.73161523    -0.58200
O328        O  0.94960553  0.02773703  0.73925427    -0.48300
O329        O  0.00611820  0.05097378  0.77518039    -0.54600
C330        C  0.95680925  0.12554072  0.79872161     0.85500
O331        O  0.97032015  0.14016997  0.72609491    -0.56500
O332        O  0.90554011  0.06426969  0.75167462    -0.59800
C333        C  0.93515087  0.19925982  0.91568506     0.20700
C334        C  0.92729183  0.16592157  0.90119868    -0.39200
C335        C  0.93834047  0.16361001  0.87153333     0.19600
C336        C  0.95636860  0.19215659  0.85738424     0.22300
C337        C  0.96366964  0.22588588  0.87173506    -0.39700
C338        C  0.95215367  0.22834269  0.90142717     0.21100
N339        N  0.92822518  0.20775808  0.94412968    -0.33000
C340        C  0.94048820  0.24267012  0.94810827    -0.10500
C341        C  0.95541532  0.25659819  0.92190292    -0.29400
N342        N  0.96536781  0.18227889  0.82953698    -0.45900
C343        C  0.95251590  0.14741898  0.82597834    -0.05200
C344        C  0.93530778  0.13494764  0.85158948    -0.22600
H345        H  0.91387575  0.14325597  0.91233083     0.19200
H346        H  0.97760205  0.24834991  0.86072793     0.18000
H347        H  0.96763302  0.28345161  0.91849277     0.14300
H348        H  0.92301835  0.10819912  0.85531189     0.14200
H349        H  0.91584732  0.19082994  0.95988596     0.32300
H350        H  0.97933450  0.19818767  0.81392272     0.35100
C351        C  0.94053990  0.20625429  0.58653740     0.20700
C352        C  0.93755067  0.17087593  0.59853843    -0.39200
C353        C  0.94381730  0.16831273  0.62916892     0.19600
C354        C  0.95259134  0.19862347  0.64659490     0.22300
C355        C  0.95528965  0.23417229  0.63458949    -0.39700
C356        C  0.94883922  0.23678517  0.60384962     0.21100
N357        N  0.93737527  0.21553807  0.55785108    -0.33000
C358        C  0.94368677  0.25227113  0.55669985    -0.10500
C359        C  0.95068829  0.26663490  0.58500883    -0.29400
N360        N  0.95813502  0.18852336  0.67500542    -0.45900
C361        C  0.95257975  0.15161595  0.67549256    -0.05200
C362        C  0.94357936  0.13805569  0.64739368    -0.22600
H363        H  0.93131548  0.14699723  0.58493902     0.19200
H364        H  0.96235968  0.25790908  0.64808731     0.18000
H365        H  0.95753882  0.29476062  0.59085144     0.14300
H366        H  0.93813373  0.10976752  0.64110986     0.14200
H367        H  0.93204174  0.19773647  0.54003816     0.32300
H368        H  0.96531162  0.20556814  0.69289032     0.35100
C369        C  0.98209838  0.48974147  0.51301241     0.20700
C370        C  0.97434288  0.45917912  0.53088583    -0.39200
C371        C  0.97021490  0.42545670  0.51592669     0.19600
C372        C  0.97391978  0.42233428  0.48548671     0.22300
C373        C  0.95757828  0.44510719  0.96998482    -0.39700
C374        C  0.98562858  0.48674781  0.48254333     0.21100
N375        N  0.98660295  0.52483044  0.52191044    -0.33000
C376        C  0.97392217  0.53532409  0.00013899    -0.10500
C377        C  0.97076157  0.51316760  0.97485641    -0.29400
N378        N  0.94676299  0.37912296  0.97866165    -0.45900
C379        C  0.94229728  0.35890189  0.00363255    -0.05200
C380        C  0.96222904  0.39084045  0.52661250    -0.22600
H381        H  0.97141565  0.46155498  0.55469461     0.19200
H382        H  0.95940809  0.44320230  0.94606764     0.18000
H383        H  0.97447015  0.52123862  0.95198303     0.14300
H384        H  0.95759871  0.38321172  0.54947064     0.14200
H385        H  0.98525541  0.53479370  0.54365605     0.32300
H386        H  0.94761604  0.36947492  0.95680139     0.35100
C387        C  0.99081337  0.70353917  0.85585478     0.20700
C388        C  0.98256811  0.66935280  0.86865453    -0.39200
C389        C  0.99234922  0.66557343  0.89877288     0.19600
C390        C  0.00893323  0.69375911  0.91489465     0.22300
C391        C  0.01794337  0.72763060  0.90193105    -0.39700
C392        C  0.00826045  0.73137088  0.87181983     0.21100
N393        N  0.98272407  0.71468421  0.82806706    -0.33000
C394        C  0.99533010  0.74975471  0.82632465    -0.10500
C395        C  0.01162924  0.76106283  0.85308599    -0.29400
N396        N  0.01324023  0.68417133  0.94352371    -0.45900
C397        C  0.99948653  0.64953989  0.94567344    -0.05200
C398        C  0.98647263  0.63689691  0.91815049    -0.22600
H399        H  0.96870991  0.64763829  0.85628145     0.19200
H400        H  0.03068145  0.74978436  0.91454977     0.18000
H401        H  0.02344473  0.78772909  0.85832359     0.14300
H402        H  0.97321494  0.61080459  0.91323321     0.14200
H403        H  0.96920260  0.69951140  0.81138826     0.32300
H404        H  0.02427184  0.70043623  0.96063987     0.35100
C405        C  0.99544295  0.67568752  0.59693124     0.20700
C406        C  0.98410240  0.67531334  0.62665101    -0.39200
C407        C  0.99187769  0.70729969  0.64308867     0.19600
C408        C  0.00999505  0.73721042  0.63094917     0.22300
C409        C  0.02085963  0.73780038  0.60110147    -0.41900
C410        C  0.01267015  0.70594615  0.58455018     0.21100
N411        N  0.99139831  0.64861360  0.57674861    -0.33000
C412        C  0.00576135  0.66178564  0.55119384    -0.10500
C413        C  0.01913393  0.69758273  0.55514398    -0.29400
N414        N  0.01404773  0.76422447  0.65118496    -0.45900
C415        C  0.99784134  0.75161878  0.67618991    -0.05200
C416        C  0.98371161  0.71623071  0.67206050    -0.22600
H417        H  0.97008361  0.65190346  0.63622631     0.19200
H418        H  0.03447457  0.76139090  0.59144354     0.18000
H419        H  0.03200130  0.71502267  0.53875957     0.14300
H420        H  0.96902691  0.69955036  0.68798182     0.14200
H421        H  0.97924153  0.62288007  0.58007878     0.32300
H422        H  0.02617243  0.78999209  0.64798840     0.35100
C423        C  0.25247780  0.99005787  0.90415180     0.20700
C424        C  0.24859438  0.00030164  0.87419479    -0.39200
C425        C  0.21584827  0.98798636  0.85968633     0.19600
C426        C  0.18946927  0.96674579  0.87392331     0.22300
C427        C  0.19324633  0.95673992  0.90376278    -0.39700
C428        C  0.22558467  0.96936072  0.91828302     0.21100
N429        N  0.28042888  0.99882932  0.92317555    -0.33000
C430        C  0.27075994  0.98397167  0.94957516    -0.10500
C431        C  0.23683350  0.96534513  0.94733733    -0.29400
N432        N  0.16138360  0.95763547  0.85533276    -0.45900
C433        C  0.16967308  0.97328695  0.82903599    -0.05200
C434        C  0.20330053  0.99271875  0.83081361    -0.22600
H435        H  0.26934702  0.01676561  0.86309547     0.19200
H436        H  0.17240723  0.94043443  0.91490774     0.18000
H437        H  0.22214723  0.95115746  0.96475609     0.14300
H438        H  0.21698084  0.00762035  0.81326657     0.14200
H439        H  0.30408329  0.01459515  0.91868930     0.32300
H440        H  0.13809469  0.94162782  0.86018491     0.35100
C441        C  0.20898640  0.93176805  0.64920208     0.20700
C442        C  0.24455504  0.92619025  0.63683349    -0.39200
C443        C  0.24532781  0.92388862  0.60573294     0.19600
C444        C  0.21311735  0.92675110  0.58839775     0.22300
C445        C  0.17763701  0.93222097  0.60074352    -0.39700
C446        C  0.17688875  0.93470248  0.63173556     0.21100
N447        N  0.20066157  0.93575562  0.67806254    -0.33000
C448        C  0.16308122  0.94154202  0.67877023    -0.10500
C449        C  0.14727556  0.94091745  0.65038091    -0.29400
N450        N  0.22121970  0.92369510  0.55949435    -0.45900
C451        C  0.25888245  0.91881113  0.55831018    -0.05200
C452        C  0.27495969  0.91884573  0.58671401    -0.22600
H453        H  0.26975252  0.92410674  0.65037726     0.19200
H454        H  0.15247996  0.93466181  0.58718900     0.18000
H455        H  0.11810197  0.94492468  0.64422356     0.14300
H456        H  0.30430613  0.91561286  0.59261762     0.14200
H457        H  0.21936743  0.93511348  0.69608449     0.32300
H458        H  0.20223579  0.92483867  0.54166570     0.35100
C459        C  0.50232609  0.90230496  0.51601693     0.20700
C460        C  0.47061103  0.90283400  0.53415851    -0.39200
C461        C  0.43598608  0.89937570  0.51934585     0.19600
C462        C  0.43325999  0.89546430  0.48882306     0.22300
C463        C  0.46500050  0.89426862  0.47074322    -0.39700
C464        C  0.49959024  0.89807357  0.48552532     0.21100
N465        N  0.53816254  0.90740066  0.52450061    -0.33000
C466        C  0.55839421  0.90661117  0.49923151    -0.10500
C467        C  0.53532255  0.90069677  0.47444589    -0.29400
N468        N  0.39720708  0.89555349  0.47989222    -0.45900
C469        C  0.37678810  0.89981769  0.50485278    -0.05200
C470        C  0.39996982  0.90186764  0.52998243    -0.22600
H471        H  0.47267081  0.90700058  0.55791638     0.19200
H472        H  0.46283174  0.89200196  0.44682793     0.18000
H473        H  0.55501770  0.99815055  0.94771580     0.14300
H474        H  0.39166783  0.90637937  0.55274234     0.14200
H475        H  0.54809138  0.91210207  0.54605709     0.32300
H476        H  0.39907637  0.00339756  0.95490847     0.35100
C477        C  0.73837346  0.95627669  0.85232930     0.20700
C478        C  0.70240672  0.95804974  0.86467008    -0.39200
C479        C  0.70133364  0.96456856  0.89537450     0.19600
C480        C  0.73367214  0.96819868  0.91242920     0.22300
C481        C  0.76954375  0.96600105  0.90018826    -0.39700
C482        C  0.77058444  0.96031232  0.86948152     0.21100
N483        N  0.74706775  0.95150531  0.82362496    -0.33000
C484        C  0.78501808  0.95279983  0.82261632    -0.10500
C485        C  0.80067552  0.95834396  0.85072611    -0.29400
N486        N  0.72530204  0.97487015  0.94085641    -0.45900
C487        C  0.68735985  0.97590657  0.94200883    -0.05200
C488        C  0.67130482  0.96955578  0.91406774    -0.22600
H489        H  0.67716566  0.95535576  0.85127546     0.19200
H490        H  0.79477536  0.96930395  0.91350975     0.18000
H491        H  0.83009415  0.96067039  0.85660415     0.14300
H492        H  0.64178280  0.96888917  0.90822969     0.14200
H493        H  0.72841172  0.94788567  0.80582277     0.32300
H494        H  0.74432420  0.97893352  0.95836923     0.35100
C495        C  0.69505364  0.92741124  0.59673189     0.20700
C496        C  0.69739296  0.91912814  0.62710651    -0.39200
C497        C  0.73067313  0.92974058  0.64160326     0.19600
C498        C  0.75914765  0.94783418  0.62707002     0.22300
C499        C  0.75676539  0.95621891  0.59674083    -0.39700
C500        C  0.72377007  0.94503479  0.58214740     0.21100
N501        N  0.66687420  0.91925857  0.57776779    -0.33000
C502        C  0.67791002  0.93149668  0.55087468    -0.10500
C503        C  0.71326394  0.94767811  0.55272805    -0.29400
N504        N  0.78804951  0.95446306  0.64566999    -0.45900
C505        C  0.77809917  0.94003627  0.67208601    -0.05200
C506        C  0.74253232  0.92440277  0.67049771    -0.22600
H507        H  0.67525830  0.90484279  0.63848125     0.19200
H508        H  0.77924862  0.96981021  0.58523239     0.18000
H509        H  0.72922992  0.95952592  0.53489054     0.14300
H510        H  0.72755608  0.91078493  0.68804951     0.14200
H511        H  0.64199431  0.90569335  0.58271250     0.32300
H512        H  0.81331937  0.96737878  0.64058933     0.35100
loop_ 
_geom_bond_atom_site_label_1 
_geom_bond_atom_site_label_2 
_geom_bond_distance 
_geom_bond_site_symmetry_2 
_ccdc_geom_bond_type 
C1            N2   1.359   1_556  A
C1          N262   1.362       .  A
C1          C210   1.470   1_565  S
N2            C3   1.356       .  A
C3          N260   1.354   1_554  A
C3          C246   1.468       .  S
N4            C5   1.356       .  A
N4          C259   1.356       .  A
C5            N6   1.357       .  A
C5          C231   1.466       .  S
N6          C257   1.359       .  A
In7           O9   2.220       .  S
In7          O10   2.265       .  S
In7          O18   2.249       .  S
In7          O12   2.243       .  S
In7          O14   2.269   1_565  S
In7          O15   2.250       .  S
In7          O16   2.230       .  S
In7          O19   2.269       .  S
C8           C70   1.459       .  S
C8           O14   1.258       .  A
C8           O16   1.255   1_545  A
O9           C17   1.260       .  A
O10          C17   1.264       .  A
C11         C249   1.467       .  S
C11          O18   1.261       .  A
C11          O12   1.260       .  A
C13          C46   1.468       .  S
C13          O15   1.257       .  A
C13          O19   1.259       .  A
C17         C228   1.468       .  S
In20         O22   2.258       .  S
In20         O23   2.240       .  S
In20         O31   2.251       .  S
In20         O25   2.247       .  S
In20         O27   2.262   1_565  S
In20         O28   2.234       .  S
In20         O29   2.260   1_565  S
In20         O32   2.271       .  S
C21          C65   1.466       .  S
C21          O27   1.257       .  A
C21          O29   1.257       .  A
O22          C30   1.262       .  A
O23          C30   1.261       .  A
C24         C177   1.469       .  S
C24          O31   1.260       .  A
C24          O25   1.260       .  A
C26          C51   1.463       .  S
C26          O28   1.256       .  A
C26          O32   1.260       .  A
C30         C192   1.471       .  S
C33          N38   1.362   1_545  A
C33         N290   1.359   1_544  A
C33         C213   1.470       .  S
N34          C35   1.358       .  A
N34         C289   1.360       .  A
C35         N292   1.357       .  A
C35         C174   1.472       .  S
N36          C37   1.356       .  A
N36         C291   1.356   1_554  A
C37          N38   1.359       .  A
C37         C195   1.473       .  S
C39          N40   1.359   1_655  A
C39         N300   1.361       .  A
C39         C120   1.479       .  S
N40          C41   1.360       .  A
C41          N42   1.359       .  A
C41         C141   1.474       .  S
N42         C299   1.359       .  A
C43          N44   1.359       .  A
C43         N298   1.358   1_655  A
C43         C156   1.472   1_655  S
N44         C295   1.360       .  A
In45         O47   2.249       .  S
In45         O48   2.258       .  S
In45         O56   2.252   1_655  S
In45         O50   2.241       .  S
In45         O52   2.270       .  S
In45         O53   2.269   1_655  S
In45         O54   2.253       .  S
In45         O57   2.229       .  S
C46          O52   1.258       .  A
C46          O54   1.258       .  A
O47          C55   1.259       .  A
O48          C55   1.259       .  A
C49         C159   1.467       .  S
C49          O56   1.261   1_655  A
C49          O50   1.260       .  A
C51          O53   1.262       .  A
C51          O57   1.257   1_455  A
C55         C138   1.470       .  S
C58          N63   1.362       .  A
C58         N315   1.362       .  A
C58         C123   1.478       .  S
N59          C60   1.363       .  A
N59         C314   1.364       .  A
C60         N317   1.361       .  A
C60         C102   1.484       .  S
N61          C62   1.355       .  A
N61         C316   1.356       .  A
C62          N63   1.360       .  A
C62          C84   1.474       .  S
In64         O66   2.250       .  S
In64         O67   2.246       .  S
In64         O75   2.264       .  S
In64         O69   2.253       .  S
In64         O71   2.258   1_655  S
In64         O72   2.229       .  S
In64         O73   2.260   1_655  S
In64         O76   2.263       .  S
C65          O71   1.257       .  A
C65          O73   1.258       .  A
O66          C74   1.263       .  A
O67          C74   1.260       .  A
C68         C105   1.475       .  S
C68          O75   1.260       .  A
C68          O69   1.259       .  A
C70          O72   1.256       .  A
C70          O76   1.261       .  A
C74          C87   1.470       .  S
C77          N83   1.343       .  A
C77          C82   1.384       .  A
C77          C78   1.405       .  A
C78          C79   1.403       .  A
C78          H89   1.082       .  S
C79          C88   1.380       .  A
C79          C80   1.385       .  A
C80          N86   1.344       .  A
C80          C81   1.404       .  A
C81          C82   1.403       .  A
C81          H90   1.082       .  S
C82          C85   1.381       .  A
N83          C84   1.357       .  A
N83          H93   1.045       .  S
C84          C85   1.396       .  A
C85          H91   1.082       .  S
N86          C87   1.354       .  A
N86          H94   1.045       .  S
C87          C88   1.395       .  A
C88          H92   1.083       .  S
C95         N101   1.345       .  A
C95         C100   1.384       .  A
C95          C96   1.405       .  A
C96          C97   1.403       .  A
C96         H107   1.082       .  S
C97         C106   1.379       .  A
C97          C98   1.384       .  A
C98         N104   1.347       .  A
C98          C99   1.408       .  A
C99         C100   1.408       .  A
C99         H108   1.082       .  S
C100        C103   1.385       .  A
N101        C102   1.357       .  A
N101        H111   1.045       .  S
C102        C103   1.400       .  A
C103        H109   1.082       .  S
N104        C105   1.357       .  A
N104        H112   1.045       .  S
C105        C106   1.395       .  A
C106        H110   1.082       .  S
C113        N119   1.345       .  A
C113        C118   1.384   1_554  A
C113        C114   1.405       .  A
C114        C115   1.404       .  A
C114        H125   1.082       .  S
C115        C124   1.381       .  A
C115        C116   1.384   1_554  A
C116        N378   1.343       .  A
C116        C373   1.405       .  A
C117        C372   1.407       .  A
C117        C374   1.406       .  A
C117        H126   1.082       .  S
C118        C373   1.403       .  A
C118        C377   1.379       .  A
N119        C376   1.357       .  A
N119        H129   1.045       .  S
C120        N375   1.356       .  A
C120        C121   1.399       .  A
C121        C374   1.382       .  A
C121        H127   1.082       .  S
N122        C123   1.357       .  A
N122        C372   1.345       .  A
N122        H130   1.045       .  S
C123        C380   1.396       .  A
C124        C379   1.396       .  A
C124        H128   1.082       .  S
C131        N137   1.344       .  A
C131        C136   1.385   1_655  A
C131        C132   1.404       .  A
C132        C133   1.403   1_655  A
C132        H143   1.082       .  S
C133        C142   1.378       .  A
C133        C134   1.384       .  A
C134        N140   1.344       .  A
C134        C135   1.404       .  A
C135        C136   1.403       .  A
C135        H144   1.082       .  S
C136        C139   1.378       .  A
N137        C138   1.356       .  A
N137        H147   1.045       .  S
C138        C139   1.394   1_655  A
C139        H145   1.082       .  S
N140        C141   1.356       .  A
N140        H148   1.044       .  S
C141        C142   1.395       .  A
C142        H146   1.082   1_455  S
C149        N155   1.345       .  A
C149        C154   1.385   1_655  A
C149        C150   1.405       .  A
C150        C151   1.404       .  A
C150        H161   1.082       .  S
C151        C160   1.379       .  A
C151        C152   1.385   1_655  A
C152        N158   1.343       .  A
C152        C153   1.401       .  A
C153        C154   1.401       .  A
C153        H162   1.082       .  S
C154        C157   1.376       .  A
N155        C156   1.357   1_655  A
N155        H165   1.045       .  S
C156        C157   1.394       .  A
C157        H163   1.082       .  S
N158        C159   1.354   1_455  A
N158        H166   1.044       .  S
C159        C160   1.395       .  A
C160        H164   1.082       .  S
C167        N173   1.346       .  A
C167        C172   1.384       .  A
C167        C168   1.406       .  A
C168        C169   1.405       .  A
C168        H179   1.082       .  S
C169        C178   1.380       .  A
C169        C170   1.385       .  A
C170        N176   1.343       .  A
C170        C171   1.401       .  A
C171        C172   1.400       .  A
C171        H180   1.082       .  S
C172        C175   1.373       .  A
N173        C174   1.357       .  A
N173        H183   1.045       .  S
C174        C175   1.393       .  A
C175        H181   1.082       .  S
N176        C177   1.354       .  A
N176        H184   1.043       .  S
C177        C178   1.395       .  A
C178        H182   1.082       .  S
C185        N191   1.347       .  A
C185        C190   1.384       .  A
C185        C186   1.408       .  A
C186        C187   1.407       .  A
C186        H197   1.082   1_565  S
C187        C196   1.384       .  A
C187        C188   1.384       .  A
C188        N194   1.341       .  A
C188        C189   1.401       .  A
C189        C190   1.400       .  A
C189        H198   1.082       .  S
C190        C193   1.376       .  A
N191        C192   1.357       .  A
N191        H201   1.045       .  S
C192        C193   1.393       .  A
C193        H199   1.082       .  S
N194        C195   1.355       .  A
N194        H202   1.045       .  S
C195        C196   1.398       .  A
C196        H200   1.082   1_565  S
C203        N209   1.342       .  A
C203        C208   1.384   1_554  A
C203        C204   1.403       .  A
C204        C205   1.402       .  A
C204        H215   1.082       .  S
C205        C214   1.378       .  A
C205        C206   1.385   1_554  A
C206        N212   1.342       .  A
C206        C207   1.402       .  A
C207        C208   1.401       .  A
C207        H216   1.082       .  S
C208        C211   1.377       .  A
N209        C210   1.356   1_554  A
N209        H219   1.044       .  S
C210        C211   1.394       .  A
C211        H473   1.082   1_545  S
N212        C213   1.356   1_556  A
N212        H476   1.044       .  S
C213        C214   1.395       .  A
C214        H218   1.082       .  S
H217        C467   1.083       .  S
H220        N468   1.044       .  S
C221        N227   1.347       .  A
C221        C226   1.385       .  A
C221        C222   1.406       .  A
C222        C223   1.406       .  A
C222        H233   1.082       .  S
C223        C232   1.380       .  A
C223        C224   1.385       .  A
C224        N230   1.340       .  A
C224        C225   1.398       .  A
C225        C226   1.398       .  A
C225        H234   1.083       .  S
C226        C229   1.371       .  A
N227        C228   1.357       .  A
N227        H237   1.044       .  S
C228        C229   1.391       .  A
C229        H235   1.082       .  S
N230        C231   1.353       .  A
N230        H238   1.045       .  S
C231        C232   1.396       .  A
C232        H236   1.082       .  S
C239        N245   1.345       .  A
C239        C244   1.385       .  A
C239        C240   1.404       .  A
C240        C241   1.403       .  A
C240        H251   1.082       .  S
C241        C250   1.378       .  A
C241        C242   1.385       .  A
C242        N248   1.342       .  A
C242        C243   1.400       .  A
C243        C244   1.400       .  A
C243        H252   1.083       .  S
C244        C247   1.373       .  A
N245        C246   1.356       .  A
N245        H255   1.044       .  S
C246        C247   1.393       .  A
C247        H253   1.083       .  S
N248        C249   1.354       .  A
N248        H256   1.046       .  S
C249        C250   1.394       .  A
C250        H254   1.082       .  S
C257        N258   1.361       .  A
C257        C466   1.472       .  S
N258        C259   1.359       .  A
C259        C502   1.473       .  S
N260        C261   1.354       .  A
C261        N262   1.359       .  A
C261        C487   1.470       .  S
In263       O265   2.241       .  S
In263       O266   2.252       .  S
In263       O274   2.243       .  S
In263       O268   2.238       .  S
In263       O270   2.260   1_565  S
In263       O271   2.261       .  S
In263       O272   2.229       .  S
In263       O275   2.256       .  S
C264        C326   1.460       .  S
C264        O270   1.260       .  A
C264        O272   1.258   1_545  A
O265        C273   1.259       .  A
O266        C273   1.260       .  A
C267        C505   1.465       .  S
C267        O274   1.262       .  A
C267        O268   1.260       .  A
C269        C302   1.464       .  S
C269        O271   1.257       .  A
C269        O275   1.257       .  A
C273        C484   1.466       .  S
In276       O278   2.250       .  S
In276       O279   2.237       .  S
In276       O287   2.250       .  S
In276       O281   2.232       .  S
In276       O283   2.233       .  S
In276       O284   2.229       .  S
In276       O285   2.269   1_565  S
In276       O288   2.272       .  S
C277        C321   1.466       .  S
C277        O283   1.258   1_545  A
C277        O285   1.262       .  A
O278        C286   1.259       .  A
O279        C286   1.259       .  A
C280        C433   1.466       .  S
C280        O287   1.262       .  A
C280        O281   1.261       .  A
C282        C307   1.460       .  S
C282        O284   1.255       .  A
C282        O288   1.259       .  A
C286        C448   1.466       .  S
C289        N294   1.360       .  A
C289        C469   1.471       .  S
N290        C291   1.356       .  A
C291        C430   1.469       .  S
N292        C293   1.356       .  A
C293        N294   1.358       .  A
C293        C451   1.472       .  S
C295        N296   1.361   1_554  A
C295        C376   1.476       .  S
N296        C297   1.359       .  A
C297        N298   1.357   1_656  A
C297        C397   1.475       .  S
C299        N300   1.360   1_455  A
C299        C412   1.476       .  S
In301       O303   2.255   1_655  S
In301       O304   2.256       .  S
In301       O312   2.256   1_655  S
In301       O306   2.245       .  S
In301       O308   2.252       .  S
In301       O309   2.265   1_655  S
In301       O310   2.252       .  S
In301       O313   2.221       .  S
C302        O308   1.259       .  A
C302        O310   1.260       .  A
O303        C311   1.258   1_455  A
O304        C311   1.257       .  A
C305        C415   1.467       .  S
C305        O312   1.259   1_655  A
C305        O306   1.258       .  A
C307        O309   1.265       .  A
C307        O313   1.257   1_455  A
C311        C394   1.470       .  S
C314        N319   1.358   1_554  A
C314        C379   1.477       .  S
N315        C316   1.360       .  A
C316        C358   1.472       .  S
N317        C318   1.360   1_554  A
C318        N319   1.356       .  A
C318        C340   1.475       .  S
In320       O322   2.249       .  S
In320       O323   2.251       .  S
In320       O331   2.260       .  S
In320       O325   2.246       .  S
In320       O327   2.271   1_655  S
In320       O328   2.219       .  S
In320       O329   2.235   1_655  S
In320       O332   2.267       .  S
C321        O327   1.260       .  A
C321        O329   1.257       .  A
O322        C330   1.260       .  A
O323        C330   1.262       .  A
C324        C361   1.466       .  S
C324        O331   1.256       .  A
C324        O325   1.256       .  A
C326        O328   1.257       .  A
C326        O332   1.265       .  A
C330        C343   1.469       .  S
C333        N339   1.343       .  A
C333        C338   1.385       .  A
C333        C334   1.401       .  A
C334        C335   1.400       .  A
C334        H345   1.082       .  S
C335        C344   1.376       .  A
C335        C336   1.384       .  A
C336        N342   1.346       .  A
C336        C337   1.407       .  A
C337        C338   1.407       .  A
C337        H346   1.083       .  S
C338        C341   1.382       .  A
N339        C340   1.354       .  A
N339        H349   1.044       .  S
C340        C341   1.399       .  A
C341        H347   1.083       .  S
N342        C343   1.357       .  A
N342        H350   1.045       .  S
C343        C344   1.392       .  A
C344        H348   1.082       .  S
C351        N357   1.340       .  A
C351        C356   1.385       .  A
C351        C352   1.401       .  A
C352        C353   1.399       .  A
C352        H363   1.083       .  S
C353        C362   1.374       .  A
C353        C354   1.385       .  A
C354        N360   1.345       .  A
C354        C355   1.405       .  A
C355        C356   1.405       .  A
C355        H364   1.082       .  S
C356        C359   1.381       .  A
N357        C358   1.355       .  A
N357        H367   1.045       .  S
C358        C359   1.397       .  A
C359        H365   1.082       .  S
N360        C361   1.356       .  A
N360        H368   1.045       .  S
C361        C362   1.391       .  A
C362        H366   1.082       .  S
C369        N375   1.344       .  A
C369        C374   1.384       .  A
C369        C370   1.404       .  A
C370        C371   1.403       .  A
C370        H381   1.082       .  S
C371        C380   1.380       .  A
C371        C372   1.384       .  A
C373        H382   1.082       .  S
N375        H385   1.045       .  S
C376        C377   1.396   1_554  A
C377        H383   1.082       .  S
N378        C379   1.357   1_556  A
N378        H386   1.045       .  S
C380        H384   1.082       .  S
C387        N393   1.345       .  A
C387        C392   1.385   1_655  A
C387        C388   1.405       .  A
C388        C389   1.404       .  A
C388        H399   1.082       .  S
C389        C398   1.380       .  A
C389        C390   1.384   1_655  A
C390        N396   1.344       .  A
C390        C391   1.404       .  A
C391        C392   1.403       .  A
C391        H400   1.082       .  S
C392        C395   1.378       .  A
N393        C394   1.356       .  A
N393        H403   1.045       .  S
C394        C395   1.394   1_655  A
C395        H401   1.082       .  S
N396        C397   1.357   1_455  A
N396        H404   1.044       .  S
C397        C398   1.396       .  A
C398        H402   1.082       .  S
C405        N411   1.344       .  A
C405        C410   1.384   1_655  A
C405        C406   1.404       .  A
C406        C407   1.402       .  A
C406        H417   1.082       .  S
C407        C416   1.378       .  A
C407        C408   1.385   1_655  A
C408        N414   1.344       .  A
C408        C409   1.404       .  A
C409        C410   1.404       .  A
C409        H418   1.082       .  S
C410        C413   1.380       .  A
N411        C412   1.356   1_655  A
N411        H421   1.044       .  S
C412        C413   1.397       .  A
C413        H419   1.082       .  S
N414        C415   1.355   1_455  A
N414        H422   1.044       .  S
C415        C416   1.394       .  A
C416        H420   1.082       .  S
C423        N429   1.346       .  A
C423        C428   1.384       .  A
C423        C424   1.406   1_565  A
C424        C425   1.406   1_545  A
C424        H435   1.082       .  S
C425        C434   1.382       .  A
C425        C426   1.385       .  A
C426        N432   1.340       .  A
C426        C427   1.399       .  A
C427        C428   1.398       .  A
C427        H436   1.082       .  S
C428        C431   1.373       .  A
N429        C430   1.357       .  A
N429        H439   1.044   1_565  S
C430        C431   1.392       .  A
C431        H437   1.083       .  S
N432        C433   1.353       .  A
N432        H440   1.042       .  S
C433        C434   1.396       .  A
C434        H438   1.082   1_565  S
C441        N447   1.345       .  A
C441        C446   1.385       .  A
C441        C442   1.405       .  A
C442        C443   1.404       .  A
C442        H453   1.082       .  S
C443        C452   1.379       .  A
C443        C444   1.385       .  A
C444        N450   1.342       .  A
C444        C445   1.401       .  A
C445        C446   1.400       .  A
C445        H454   1.082       .  S
C446        C449   1.374       .  A
N447        C448   1.356       .  A
N447        H457   1.045       .  S
C448        C449   1.392       .  A
C449        H455   1.082       .  S
N450        C451   1.355       .  A
N450        H458   1.045       .  S
C451        C452   1.396       .  A
C452        H456   1.082       .  S
C459        N465   1.343       .  A
C459        C464   1.384       .  A
C459        C460   1.403       .  A
C460        C461   1.402       .  A
C460        H471   1.082       .  S
C461        C470   1.379       .  A
C461        C462   1.385       .  A
C462        N468   1.342       .  A
C462        C463   1.403       .  A
C463        C464   1.402       .  A
C463        H472   1.082       .  S
C464        C467   1.378       .  A
N465        C466   1.355       .  A
N465        H475   1.044       .  S
C466        C467   1.396       .  A
N468        C469   1.355       .  A
C469        C470   1.396       .  A
C470        H474   1.083       .  S
C477        N483   1.344       .  A
C477        C482   1.385       .  A
C477        C478   1.405       .  A
C478        C479   1.404       .  A
C478        H489   1.082       .  S
C479        C488   1.381       .  A
C479        C480   1.385       .  A
C480        N486   1.340       .  A
C480        C481   1.401       .  A
C481        C482   1.399       .  A
C481        H490   1.083       .  S
C482        C485   1.375       .  A
N483        C484   1.356       .  A
N483        H493   1.044       .  S
C484        C485   1.393       .  A
C485        H491   1.082       .  S
N486        C487   1.355       .  A
N486        H494   1.045       .  S
C487        C488   1.396       .  A
C488        H492   1.082       .  S
C495        N501   1.345       .  A
C495        C500   1.385       .  A
C495        C496   1.404       .  A
C496        C497   1.403       .  A
C496        H507   1.082       .  S
C497        C506   1.378       .  A
C497        C498   1.385       .  A
C498        N504   1.343       .  A
C498        C499   1.403       .  A
C499        C500   1.402       .  A
C499        H508   1.083       .  S
C500        C503   1.377       .  A
N501        C502   1.356       .  A
N501        H511   1.044       .  S
C502        C503   1.395       .  A
C503        H509   1.082       .  S
N504        C505   1.354       .  A
N504        H512   1.046       .  S
C505        C506   1.394       .  A
C506        H510   1.082       .  S
