geometry optimzed in LAMMPS
_audit_creation_date              2020-11-30 
_audit_creation_method            'lammps2cif' 
_symmetry_space_group_name_H-M    'P1' 
_symmetry_Int_Tables_number       1 
_symmetry_cell_setting            triclinic 
loop_ 
_symmetry_equiv_pos_as_xyz 
  x,y,z 
_cell_length_a                    60.01104439 
_cell_length_b                    59.945871680098016 
_cell_length_c                    46.67565374773999 
_cell_angle_alpha                 90.05689893318046 
_cell_angle_beta                  90.03553423040908 
_cell_angle_gamma                 120.1455339361195 
loop_ 
_atom_site_label 
_atom_site_type_symbol 
_atom_site_fract_x 
_atom_site_fract_y 
_atom_site_fract_z 
_atom_site_charge 
C1          C  0.45642753  0.23978736  0.12298548     0.03900
C2          C  0.45993732  0.22842929  0.09831395    -0.12300
C3          C  0.46169929  0.20599874  0.10050022     0.01400
C4          C  0.46010356  0.19510287  0.12747202    -0.10800
C5          C  0.45720036  0.20658577  0.15220894     0.03900
C6          C  0.45510019  0.22878149  0.14995058    -0.10200
H7          H  0.46091894  0.23680984  0.07745966     0.09400
H8          H  0.46192750  0.17805466  0.12931182     0.07000
H9          H  0.45299893  0.23775965  0.16913444     0.06800
C10         C  0.27625333  0.86081856  0.38338302     0.03900
C11         C  0.26438250  0.84954039  0.35722141    -0.12300
C12         C  0.24129389  0.82584479  0.35669207     0.01400
C13         C  0.22978549  0.81366019  0.38251166    -0.10800
C14         C  0.24126100  0.82483969  0.40874280     0.03900
C15         C  0.26450959  0.84846879  0.40922164    -0.10200
H16         H  0.27337809  0.85897121  0.33724940     0.09400
H17         H  0.21210173  0.79512951  0.38220297     0.10400
H18         H  0.27355803  0.85700368  0.42952872     0.06800
C19         C  0.86624341  0.19858859  0.13042398     0.03900
C20         C  0.87661527  0.21148794  0.10440999    -0.12300
C21         C  0.89901618  0.23587621  0.10452487     0.01400
C22         C  0.91074518  0.24736280  0.13048962    -0.10800
C23         C  0.90045099  0.23481274  0.15646953     0.03900
C24         C  0.87828891  0.21030066  0.15637295    -0.10200
H25         H  0.86734523  0.20263896  0.08429614     0.09400
H26         H  0.92777411  0.26641911  0.13046304     0.07000
H27         H  0.87028553  0.20042905  0.17644615     0.06800
C28         C  0.68881973  0.81746545  0.37514588     0.03900
C29         C  0.68674099  0.82812503  0.34925243    -0.12300
C30         C  0.68423919  0.85011417  0.34935931     0.01400
C31         C  0.68338245  0.86111724  0.37546183    -0.10800
C32         C  0.68506068  0.85034379  0.40135471     0.03900
C33         C  0.68803653  0.82867145  0.40121905    -0.10200
H34         H  0.68690058  0.81921691  0.32908974     0.09400
H35         H  0.68133771  0.87809434  0.37565314     0.07000
H36         H  0.68902314  0.82015356  0.42131398     0.06800
C37         C  0.90042488  0.65290831  0.11713967     0.03900
C38         C  0.88998594  0.65373945  0.09044958    -0.12300
C39         C  0.86655208  0.65350530  0.08903178     0.01400
C40         C  0.85338941  0.65218068  0.11426638    -0.10800
C41         C  0.86343628  0.65121907  0.14104284     0.03900
C42         C  0.88724078  0.65210024  0.14235001    -0.10200
H43         H  0.90005710  0.65464450  0.07083642     0.09400
H44         H  0.83482504  0.65108690  0.11293810     0.07000
H45         H  0.89533794  0.65174137  0.16298254     0.06800
C46         C  0.23260421  0.39031833  0.36863635     0.03900
C47         C  0.24564930  0.39095531  0.39386811    -0.12300
C48         C  0.26920158  0.39148542  0.39251908     0.01400
C49         C  0.27929393  0.39032838  0.36586706    -0.10800
C50         C  0.26636476  0.38937584  0.34047452     0.03900
C51         C  0.24298426  0.38941002  0.34192258    -0.10200
H52         H  0.23806966  0.39224281  0.41449360     0.09400
H53         H  0.29791272  0.39151725  0.36484109     0.07000
H54         H  0.23338669  0.38964015  0.32234256     0.06800
O55         O  0.97133395  0.35006648  0.34402215    -0.77800
C56         C  0.98361107  0.35200432  0.43766870     0.83300
O57         O  0.96104647  0.41841914  0.38669207    -0.78900
O58         O  0.03996618  0.43714651  0.43804999    -0.80400
O59         O  0.06079471  0.40479586  0.35575376    -0.80200
O60         O  0.00623445  0.37553330  0.31832314    -0.78800
Zn61       Zn  0.97470291  0.37006444  0.38000764     1.55700
O62         O  0.06000652  0.40164648  0.40316154    -0.80200
Cd63       Cd  0.02750950  0.40557757  0.34618015     1.59700
Cd64       Cd  0.00016888  0.43161394  0.38304586     1.59600
O65         O  0.03769283  0.43959771  0.32542268    -0.80200
O66         O  0.00708768  0.40230464  0.38113960    -1.90700
Cd67       Cd  0.02765620  0.40329822  0.41521134     1.59900
O68         O  0.01528471  0.45515358  0.34733196    -0.80100
O69         O  0.00543457  0.37222784  0.44176936    -0.78800
C70         C  0.94177790  0.39558539  0.38526962     0.83700
C71         C  0.98466294  0.35483335  0.32124126     0.83400
O72         O  0.97097697  0.34863949  0.41457021    -0.77700
C73         C  0.07066523  0.40286862  0.37915751     0.84200
O74         O  0.94462275  0.37609147  0.38182038    -0.77800
C75         C  0.03069761  0.45637289  0.32775938     0.84300
C76         C  0.03386654  0.45466546  0.43699976     0.84700
O77         O  0.01836256  0.45457443  0.41826323    -0.80300
O78         O  0.17138710  0.71062210  0.09954749    -0.77800
C79         C  0.15625335  0.70736778  0.19091109     0.83300
O80         O  0.17806846  0.63896890  0.13239922    -0.78900
O81         O  0.10329251  0.62249548  0.19095578    -0.80400
O82         O  0.08059866  0.65547762  0.10841715    -0.80200
O83         O  0.13632869  0.68868851  0.07294855    -0.78800
Zn84       Zn  0.16652896  0.68904129  0.13414190     1.55700
O85         O  0.07959316  0.65494875  0.15605563    -0.80200
Cd86       Cd  0.11438984  0.65635446  0.09780418     1.59700
Cd87       Cd  0.13925653  0.62726533  0.13233408     1.59600
O88         O  0.10491015  0.62394144  0.07318952    -0.80200
O89         O  0.13365108  0.65739551  0.13310051    -1.90700
Cd90       Cd  0.11323225  0.65561253  0.16777787     1.59900
O91         O  0.12268312  0.60447868  0.09649373    -0.80100
O92         O  0.13416849  0.68730924  0.19420624    -0.78800
C93         C  0.19775679  0.66155433  0.13282449     0.83700
C94         C  0.15855871  0.70838817  0.07698318     0.83400
O95         O  0.17005728  0.71024244  0.16899697    -0.77700
C96         C  0.06955053  0.65489836  0.13196077     0.84200
O97         O  0.19556987  0.68158448  0.13397493    -0.77800
C98         C  0.10971133  0.60557909  0.07545220     0.84300
C99         C  0.10841318  0.60438439  0.18795773     0.84700
O100        O  0.12227376  0.60420664  0.16741777    -0.80300
O101        O  0.49681533  0.12981335  0.33986628    -0.77800
C102        C  0.48451939  0.11527888  0.43166248     0.83300
O103        O  0.57355660  0.13357667  0.37467615    -0.78900
O104        O  0.51291066  0.05996869  0.43295360    -0.80400
O105        O  0.45555561  0.03795944  0.35065169    -0.80200
O106        O  0.48181545  0.09419689  0.31374348    -0.78800
Zn107      Zn  0.51262780  0.12415700  0.37480731     1.55700
O108        O  0.45685752  0.03805519  0.39837647    -0.80200
Cd109      Cd  0.48985323  0.07091159  0.33966721     1.59700
Cd110      Cd  0.54498071  0.09489129  0.37412160     1.59600
O111        O  0.51131457  0.05915068  0.31622735    -0.80200
O112        O  0.50963888  0.09051091  0.37438165    -1.90700
Cd113      Cd  0.49085314  0.07085229  0.40924393     1.59900
O114        O  0.54970989  0.07781732  0.33792439    -0.80100
O115        O  0.48144187  0.09281891  0.43505334    -0.78800
C116        C  0.57151947  0.15374024  0.37443605     0.83700
C117        C  0.48594944  0.11707588  0.31725748     0.83400
O118        O  0.49578160  0.12878217  0.40965250    -0.77700
C119        C  0.44563560  0.02791916  0.37477902     0.84200
O120        O  0.54964041  0.15232592  0.37450639    -0.77800
C121        C  0.53447473  0.06385750  0.31804867     0.84300
C122        C  0.53572849  0.06390813  0.43013138     0.84700
O123        O  0.55005595  0.07680452  0.40919204    -0.80300
O124        O  0.65317530  0.92911599  0.08765268    -0.77800
C125        C  0.65873090  0.93762771  0.18021550     0.83300
O126        O  0.57321091  0.92098038  0.12128690    -0.78900
O127        O  0.63106192  0.99380242  0.18175171    -0.80400
O128        O  0.69050755  0.01885730  0.10311623    -0.80200
O129        O  0.66787378  0.96578329  0.06359436    -0.78800
Zn130      Zn  0.63433976  0.93179011  0.12149149     1.55700
O131        O  0.68897469  0.01651357  0.15074079    -0.80200
Cd132      Cd  0.65691315  0.98655392  0.08958829     1.59700
Cd133      Cd  0.60097573  0.95991324  0.12148344     1.59600
O134        O  0.63534611  0.99795043  0.06536493    -0.80200
O135        O  0.63654903  0.96510845  0.12287758    -1.90700
Cd136      Cd  0.65407155  0.98345013  0.15902911     1.59900
O137        O  0.59638604  0.97735866  0.08541534    -0.80100
O138        O  0.66148480  0.95984607  0.18464457    -0.78800
C139        C  0.57558006  0.90103413  0.11974216     0.83700
C140        C  0.66509830  0.94338702  0.06635987     0.83400
O141        O  0.64920466  0.92548799  0.15690519    -0.77700
C142        C  0.70046257  0.02767491  0.12762258     0.84200
O143        O  0.59762417  0.90283736  0.11897107    -0.77800
C144        C  0.61179621  0.99220131  0.06618183     0.84300
C145        C  0.60818172  0.98953306  0.17821837     0.84700
O146        O  0.59457395  0.97679285  0.15673507    -0.80300
C147        C  0.73228544  0.38208378  0.38525785     0.81000
N148        N  0.71292542  0.35729626  0.38216405    -0.77400
C149        C  0.71768592  0.33749967  0.38499682     0.83400
N150        N  0.74216299  0.34279475  0.39013462    -0.77300
C151        C  0.76179110  0.36753146  0.39301212     0.83500
N152        N  0.75655759  0.38700584  0.39066996    -0.79000
C153        C  0.40814455  0.67518766  0.13046967     0.81000
N154        N  0.42766497  0.70014154  0.13078337    -0.77400
C155        C  0.42263126  0.71988918  0.13176134     0.83400
N156        N  0.39774083  0.71432414  0.13256501    -0.77300
C157        C  0.37804540  0.68954816  0.13178950     0.83500
N158        N  0.38338777  0.67010680  0.13077845    -0.79000
O159        O  0.38771682  0.44835073  0.08397643    -0.77800
C160        C  0.38972591  0.43343083  0.17585575     0.83300
O161        O  0.45756785  0.52533948  0.11759150    -0.78900
O162        O  0.47580496  0.46959348  0.17573817    -0.80400
O163        O  0.44191614  0.41069799  0.09421102    -0.80200
O164        O  0.40910646  0.43387290  0.05847055    -0.78800
Zn165      Zn  0.40829130  0.46361729  0.11981669     1.55700
O166        O  0.44536316  0.41275623  0.14182052    -0.80200
Cd167      Cd  0.44102921  0.44375646  0.08349891     1.59700
Cd168      Cd  0.46986803  0.49882756  0.11615572     1.59600
O169        O  0.47323326  0.46655395  0.05866741    -0.80200
O170        O  0.44012405  0.46273129  0.11826137    -1.90700
Cd171      Cd  0.44270277  0.44487103  0.15315619     1.59900
O172        O  0.49101050  0.50539180  0.07902951    -0.80100
O173        O  0.41038109  0.43256027  0.17930119    -0.78800
C174        C  0.43515134  0.52237928  0.12053547     0.83700
C175        C  0.39012537  0.43757255  0.06159025     0.83400
O176        O  0.38663942  0.44411947  0.15380964    -0.77700
C177        C  0.44442382  0.40179869  0.11803635     0.84200
O178        O  0.41515884  0.50011355  0.12254429    -0.77800
C179        C  0.49046387  0.49036572  0.05939098     0.84300
C180        C  0.49428518  0.49252868  0.17149555     0.84700
O181        O  0.49469968  0.50578688  0.14995121    -0.80300
O182        O  0.74847067  0.60740386  0.33057719    -0.77800
C183        C  0.74394352  0.61360172  0.42513898     0.83300
O184        O  0.67683663  0.52786054  0.36577460    -0.78900
O185        O  0.65936932  0.58630542  0.42373796    -0.80400
O186        O  0.69528098  0.64351840  0.34511703    -0.80200
O187        O  0.72485246  0.61981572  0.30609857    -0.78800
Zn188      Zn  0.72715183  0.58989684  0.36576423     1.55700
O189        O  0.69624039  0.64308124  0.39271565    -0.80200
Cd190      Cd  0.69425850  0.61017112  0.33297543     1.59700
Cd191      Cd  0.66467980  0.55488401  0.36579329     1.59600
O192        O  0.66141265  0.58879731  0.30939000    -0.80200
O193        O  0.69523513  0.59059496  0.36675278    -1.90700
Cd194      Cd  0.69371585  0.60828294  0.40221063     1.59900
O195        O  0.64282198  0.54983155  0.32932550    -0.80100
O196        O  0.72382690  0.61527795  0.42905325    -0.78800
C197        C  0.69944745  0.53085809  0.36488506     0.83700
C198        C  0.74466271  0.61741843  0.30838167     0.83400
O199        O  0.74799588  0.60549996  0.40155792    -0.77700
C200        C  0.69626180  0.65389102  0.36921193     0.84200
O201        O  0.71933280  0.55330049  0.36452409    -0.77800
C202        C  0.64349129  0.56533719  0.31017117     0.84300
C203        C  0.64052148  0.56343887  0.42054789     0.84700
O204        O  0.64020394  0.54892840  0.40028569    -0.80300
C205        C  0.58963800  0.51925819  0.26128524    -0.01300
C206        C  0.58227580  0.53560122  0.24779376     0.07300
C207        C  0.59549900  0.56199319  0.25430608    -0.07200
C208        C  0.61564837  0.57223129  0.27425870     0.04800
C209        C  0.62281300  0.55576985  0.28823827    -0.14500
C210        C  0.60964541  0.52937182  0.28136860    -0.07800
C211        C  0.55992309  0.52524297  0.22802534     0.05700
C212        C  0.53547663  0.50750225  0.23866882    -0.08900
C213        C  0.51378956  0.49684260  0.22087319     0.00700
C214        C  0.51637094  0.50401844  0.19167997     0.00600
C215        C  0.54084832  0.52232030  0.18125359    -0.12500
C216        C  0.56253725  0.53290655  0.19911135     0.01000
C217        C  0.48911078  0.47926485  0.23347657     0.40300
C218        C  0.58733843  0.55101436  0.18711217     0.36900
C219        C  0.57714661  0.49208960  0.25456385     0.36700
C220        C  0.62771319  0.59944013  0.28073492     0.37400
N221        N  0.46935279  0.46522733  0.24365701    -0.43400
N222        N  0.60720219  0.56555824  0.17751061    -0.43800
N223        N  0.63734610  0.62123723  0.28589074    -0.41200
N224        N  0.56710802  0.47032403  0.24914122    -0.42600
H225        H  0.61507664  0.51655514  0.29159449     0.13600
H226        H  0.58964574  0.57453799  0.24420281     0.10000
H227        H  0.53335157  0.50202554  0.26108160     0.11100
H228        H  0.54318781  0.52799190  0.15890491     0.16900
C229        C  0.53923008  0.53679750  0.00606469    -0.01300
C230        C  0.55120568  0.52299475  0.99670133     0.07300
C231        C  0.54253809  0.49808614  0.00728995    -0.07200
C232        C  0.52247663  0.48693353  0.02724183     0.04800
C233        C  0.51077123  0.50089534  0.03713007    -0.14500
C234        C  0.51932162  0.52578403  0.02631110    -0.07800
C235        C  0.57416318  0.53339304  0.47655185     0.05700
C236        C  0.59759755  0.55455809  0.48531997    -0.08900
C237        C  0.61931224  0.56493755  0.46752767     0.00700
C238        C  0.61803609  0.55355864  0.44042444     0.00600
C239        C  0.59427502  0.53250325  0.43163403    -0.12500
C240        C  0.57243203  0.52265615  0.44921753     0.01000
C241        C  0.64242379  0.58721602  0.47798738     0.40300
C242        C  0.54818074  0.50218228  0.43837017     0.36900
C243        C  0.54668989  0.56199671  0.99472924     0.36700
C244        C  0.51530695  0.46173736  0.03837925     0.37400
N245        N  0.66066654  0.60529089  0.48653295    -0.43400
N246        N  0.52866059  0.48596550  0.42961313    -0.43800
N247        N  0.50957768  0.44157711  0.04738632    -0.41200
N248        N  0.55257508  0.58212807  0.98550933    -0.42600
H249        H  0.51031820  0.53658235  0.03356544     0.13600
H250        H  0.55189307  0.48752990  0.00035602     0.10000
H251        H  0.59806474  0.56337434  0.00740356     0.11100
H252        H  0.59254304  0.52394801  0.41067942     0.16900
C253        C  0.39810743  0.60889419  0.11405864    -0.01300
C254        C  0.42088820  0.61064066  0.12462201     0.07300
C255        C  0.43987494  0.63376908  0.13687587    -0.07200
C256        C  0.43628726  0.65506077  0.13922729     0.04800
C257        C  0.41340292  0.65347619  0.12859961    -0.14500
C258        C  0.39458133  0.63018088  0.11605541    -0.07800
C259        C  0.42480781  0.58818449  0.12409037     0.05700
C260        C  0.44173284  0.58747402  0.10394273    -0.08900
C261        C  0.44553862  0.56628667  0.10253869     0.00700
C262        C  0.43213724  0.54534410  0.12154163     0.00600
C263        C  0.41522983  0.54617247  0.14172475    -0.12500
C264        C  0.41172036  0.56751370  0.14333392     0.01000
C265        C  0.46238367  0.56600442  0.08062665     0.40300
C266        C  0.39507466  0.56814680  0.16525517     0.36900
C267        C  0.37808612  0.58542769  0.10112681     0.36700
C268        C  0.45576576  0.67747576  0.15422482     0.37400
N269        N  0.47582475  0.56570018  0.06305003    -0.43400
N270        N  0.38187707  0.56885451  0.18286492    -0.43800
N271        N  0.47151479  0.69512326  0.16657982    -0.41200
N272        N  0.36201485  0.56660636  0.09083597    -0.42600
H273        H  0.37696721  0.62849251  0.10771098     0.13600
H274        H  0.45726162  0.63491981  0.14535385     0.10000
H275        H  0.45173404  0.60337646  0.08909130     0.11100
H276        H  0.40505234  0.53028701  0.15655504     0.16900
C277        C  0.70818600  0.42375771  0.35260252    -0.01300
C278        C  0.71863981  0.44517166  0.37129370     0.07300
C279        C  0.73340669  0.44562173  0.39485808    -0.07200
C280        C  0.73796822  0.42523651  0.39988305     0.04800
C281        C  0.72731823  0.40367989  0.38133053    -0.14500
C282        C  0.71233224  0.40311461  0.35791115    -0.07800
C283        C  0.71370939  0.46692034  0.36736705     0.05700
C284        C  0.68833809  0.46211794  0.36903922    -0.08900
C285        C  0.68294295  0.48229552  0.36757880     0.00700
C286        C  0.70335008  0.50812077  0.36463786     0.00600
C287        C  0.72871267  0.51261969  0.36210173    -0.12500
C288        C  0.73398104  0.49241178  0.36341857     0.01000
C289        C  0.65631661  0.47567514  0.36964138     0.40300
C290        C  0.76036019  0.49832315  0.36043686     0.36900
C291        C  0.69397849  0.42300246  0.32729249     0.36700
C292        C  0.75282937  0.42651862  0.42482004     0.37400
N293        N  0.63492555  0.47023228  0.37124682    -0.43400
N294        N  0.78150396  0.50310667  0.35804596    -0.43800
N295        N  0.76472100  0.42755818  0.44482350    -0.41200
N296        N  0.68271394  0.42250278  0.30693975    -0.42600
H297        H  0.70441835  0.38682328  0.34330589     0.13600
H298        H  0.74118647  0.46186996  0.40952275     0.10000
H299        H  0.67268634  0.44249703  0.37210044     0.11100
H300        H  0.74471594  0.53208486  0.35933002     0.16900
C301        C  0.50997992  0.84593786  0.14060105    -0.01300
C302        C  0.50911550  0.82487584  0.12599104     0.07300
C303        C  0.52951345  0.82933704  0.10772733    -0.07200
C304        C  0.55096574  0.85407448  0.10464796     0.04800
C305        C  0.55225745  0.87503274  0.12002481    -0.14500
C306        C  0.53138574  0.87072858  0.13743907    -0.07800
C307        C  0.48692587  0.79814992  0.12887252     0.05700
C308        C  0.46225786  0.79303736  0.12098480    -0.08900
C309        C  0.44097205  0.76800323  0.12222650     0.00700
C310        C  0.44420428  0.74719599  0.13127876     0.00600
C311        C  0.46899064  0.75254482  0.13941291    -0.12500
C312        C  0.49017248  0.77762956  0.13838715     0.01000
C313        C  0.41641036  0.76445829  0.11305267     0.40300
C314        C  0.51498409  0.78182909  0.14757170     0.36900
C315        C  0.48956274  0.84249070  0.15968679     0.36700
C316        C  0.57092496  0.85750238  0.08483515     0.37400
N317        N  0.39676898  0.76175500  0.10573772    -0.43400
N318        N  0.53484458  0.78511791  0.15488956    -0.43800
N319        N  0.58681377  0.86020603  0.06882775    -0.41200
N320        N  0.47315639  0.83974784  0.17490183    -0.42600
H321        H  0.53215654  0.88663542  0.14937822     0.13600
H322        H  0.52861310  0.81338706  0.09574675     0.10000
H323        H  0.45970178  0.80868525  0.11330502     0.11100
H324        H  0.47194014  0.73709288  0.14670418     0.16900
C325        C  0.68304230  0.26638347  0.36607088    -0.01300
C326        C  0.65773677  0.25808074  0.37537084     0.07300
C327        C  0.65211106  0.27595963  0.38789802    -0.07200
C328        C  0.67120389  0.30185152  0.39123463     0.04800
C329        C  0.69662773  0.31032086  0.38183089    -0.14500
C330        C  0.70221975  0.29228630  0.36941416    -0.07800
C331        C  0.63677569  0.23079414  0.37283705     0.05700
C332        C  0.63789311  0.21180155  0.38933764    -0.08900
C333        C  0.61719541  0.18633254  0.38969199     0.00700
C334        C  0.59484048  0.17966580  0.37340923     0.00600
C335        C  0.59413603  0.19858603  0.35632797    -0.12500
C336        C  0.61487147  0.22388648  0.35576857     0.01000
C337        C  0.61877078  0.16792931  0.40826708     0.40300
C338        C  0.61332027  0.24241700  0.33737191     0.36900
C339        C  0.68960662  0.24881325  0.35245724     0.36700
C340        C  0.66433374  0.31888040  0.40563303     0.37400
N341        N  0.62004820  0.15323628  0.42324636    -0.43400
N342        N  0.61210105  0.25723167  0.32254867    -0.43800
N343        N  0.65876351  0.33243524  0.41727576    -0.41200
N344        N  0.69486112  0.23473867  0.34150396    -0.42600
H345        H  0.72158539  0.29849084  0.36196951     0.13600
H346        H  0.63272303  0.26952365  0.39546462     0.10000
H347        H  0.65464268  0.21710069  0.40266733     0.11100
H348        H  0.57723587  0.19358849  0.34338287     0.16900
C349        C  0.57430150  0.03552401  0.46112506    -0.01300
C350        C  0.56595137  0.03091486  0.48982373     0.07300
C351        C  0.54761620  0.03728071  0.49909578    -0.07200
C352        C  0.53754399  0.04815305  0.48021515     0.04800
C353        C  0.54586502  0.05277451  0.45132929    -0.14500
C354        C  0.56431453  0.04640209  0.44222839    -0.07800
C355        C  0.58071637  0.02176749  0.00302658     0.05700
C356        C  0.60687827  0.03612503  0.01037488    -0.08900
C357        C  0.61748968  0.02699230  0.03080787     0.00700
C358        C  0.60177073  0.00280318  0.04411528     0.00600
C359        C  0.57556436  0.98844443  0.03650650    -0.12500
C360        C  0.56500112  0.99769889  0.01620616     0.01000
C361        C  0.64413920  0.04356014  0.03877281     0.40300
C362        C  0.53803819  0.98205460  0.00901207     0.36900
C363        C  0.59270701  0.02873713  0.45044674     0.36700
C364        C  0.51958179  0.05531121  0.49146284     0.37400
N365        N  0.66545771  0.05696775  0.04522078    -0.43400
N366        N  0.51642894  0.96949111  0.00325873    -0.43800
N367        N  0.51541184  0.06997001  0.99759421    -0.41200
N368        N  0.60744553  0.02327811  0.44190737    -0.42600
H369        H  0.57074065  0.04959215  0.42012546     0.13600
H370        H  0.54881062  0.03927428  0.01585928     0.10000
H371        H  0.61889608  0.05485219  0.00059696     0.11100
H372        H  0.56325017  0.96982754  0.04636327     0.16900
C373        C  0.57883580  0.05859701  0.26477362    -0.01300
C374        C  0.56440197  0.03249114  0.25640577     0.07300
C375        C  0.53971482  0.01681194  0.26786921    -0.07200
C376        C  0.52939831  0.02673376  0.28765601     0.04800
C377        C  0.54408641  0.05274659  0.29648198    -0.14500
C378        C  0.56873227  0.06841741  0.28490961    -0.07800
C379        C  0.57511501  0.02102824  0.23644042     0.05700
C380        C  0.59688540  0.01976988  0.24481459    -0.08900
C381        C  0.60791373  0.00941601  0.22658404     0.00700
C382        C  0.59701850  0.00000419  0.19914764     0.00600
C383        C  0.57487953  0.00097889  0.19113834    -0.12500
C384        C  0.56395093  0.01135430  0.20943957     0.01000
C385        C  0.63005300  0.00842209  0.23705528     0.40300
C386        C  0.54174325  0.01257369  0.19969273     0.36900
C387        C  0.60375366  0.07579619  0.25242236     0.36700
C388        C  0.50427626  0.00952835  0.29958843     0.37400
N389        N  0.64778698  0.00769633  0.24560579    -0.43400
N390        N  0.52394546  0.01354373  0.19187632    -0.43800
N391        N  0.48417219  0.99575725  0.30920688    -0.41200
N392        N  0.62366073  0.08957874  0.24239069    -0.42600
H393        H  0.57998787  0.08848483  0.29135918     0.13600
H394        H  0.52866691  0.99666980  0.26165244     0.10000
H395        H  0.60526646  0.02689910  0.26579667     0.11100
H396        H  0.56621674  0.99401272  0.17024996     0.16900
C397        C  0.25257831  0.64850342  0.14494919    -0.01300
C398        C  0.27361839  0.67073905  0.13312309     0.07300
C399        C  0.26945918  0.68932072  0.11997025    -0.07200
C400        C  0.24488785  0.68645801  0.11911073     0.04800
C401        C  0.22385914  0.66470095  0.13197132    -0.14500
C402        C  0.22794537  0.64567756  0.14436295    -0.07800
C403        C  0.30017371  0.67504956  0.13386554     0.05700
C404        C  0.30597011  0.65888301  0.11777574    -0.08900
C405        C  0.33115538  0.66323866  0.11660432     0.00700
C406        C  0.35103985  0.68396997  0.13217635     0.00600
C407        C  0.34512056  0.70017362  0.14819374    -0.12500
C408        C  0.31998692  0.69592748  0.14908378     0.01000
C409        C  0.33616990  0.64720589  0.09767842     0.40300
C410        C  0.31492404  0.71315814  0.16585587     0.36900
C411        C  0.25592123  0.62865567  0.15829095     0.36700
C412        C  0.24172838  0.70558203  0.10372271     0.37400
N413        N  0.33990805  0.63437844  0.08215358    -0.43400
N414        N  0.31082466  0.72699263  0.17918114    -0.43800
N415        N  0.23922655  0.72082378  0.09117957    -0.41200
N416        N  0.25860544  0.61271004  0.16887710    -0.42600
H417        H  0.21196837  0.62878246  0.15406542     0.13600
H418        H  0.28552178  0.70607226  0.11013777     0.10000
H419        H  0.29085958  0.64323182  0.10545340     0.11100
H420        H  0.36016453  0.71617944  0.16017303     0.16900
C421        C  0.81736316  0.35565745  0.40641572    -0.01300
C422        C  0.83901894  0.37983569  0.40010058     0.07300
C423        C  0.83544328  0.40067937  0.39382739    -0.07200
C424        C  0.81075130  0.39763124  0.39262558     0.04800
C425        C  0.78873666  0.37294889  0.39724859    -0.14500
C426        C  0.79259599  0.35238710  0.40483576    -0.07800
C427        C  0.86531555  0.38339758  0.39759723     0.05700
C428        C  0.86963998  0.36880630  0.37715276    -0.08900
C429        C  0.89432815  0.37250181  0.37268533     0.00700
C430        C  0.91542257  0.39144301  0.38860663     0.00600
C431        C  0.91110696  0.40612419  0.40899611    -0.12500
C432        C  0.88629721  0.40209992  0.41376982     0.01000
C433        C  0.89757995  0.35730334  0.35082528     0.40300
C434        C  0.88271284  0.41686795  0.43588313     0.36900
C435        C  0.82008210  0.33393455  0.41468933     0.36700
C436        C  0.80900748  0.42017275  0.38564122     0.37400
N437        N  0.90015123  0.34512354  0.33328283    -0.43400
N438        N  0.87980020  0.42864346  0.45364760    -0.43800
N439        N  0.80780447  0.43836660  0.38015649    -0.41200
N440        N  0.82224313  0.31653422  0.42139592    -0.42600
H441        H  0.77619759  0.33348579  0.40925395     0.13600
H442        H  0.85206227  0.41932945  0.38894986     0.10000
H443        H  0.85368443  0.35474645  0.36426216     0.11100
H444        H  0.92708105  0.42040400  0.42168824     0.16900
C445        C  0.09032600  0.54114485  0.04040801    -0.01300
C446        C  0.08069763  0.54329536  0.01367579     0.07300
C447        C  0.08049426  0.56597612  0.00704302    -0.07200
C448        C  0.08987830  0.58656922  0.02651795     0.04800
C449        C  0.09976931  0.58462384  0.05346158    -0.14500
C450        C  0.09986621  0.56169739  0.05987225    -0.07800
C451        C  0.06970334  0.51859486  0.49542868     0.05700
C452        C  0.04299457  0.50603912  0.49097950    -0.08900
C453        C  0.03085771  0.48493977  0.47232862     0.00700
C454        C  0.04560707  0.47612673  0.45777768     0.00600
C455        C  0.07230969  0.48855210  0.46248418    -0.12500
C456        C  0.08445710  0.50980411  0.48094291     0.01000
C457        C  0.00317632  0.47206188  0.46934828     0.40300
C458        C  0.11211738  0.52276431  0.48404473     0.36900
C459        C  0.08973071  0.51764887  0.04871556     0.36700
C460        C  0.08917982  0.60934688  0.01792457     0.37400
N461        N  0.98098243  0.46165678  0.46707267    -0.43400
N462        N  0.13429740  0.53319192  0.48646169    -0.43800
N463        N  0.08851432  0.62752840  0.01095456    -0.41200
N464        N  0.08915313  0.49876254  0.05531616    -0.42600
H465        H  0.10697715  0.55951664  0.08043092     0.13600
H466        H  0.07597390  0.56538224  0.48611901     0.10000
H467        H  0.03098530  0.51407308  0.99978808     0.11100
H468        H  0.08378787  0.48203846  0.45115356     0.16900
C469        C  0.08012244  0.56709207  0.25654597    -0.01300
C470        C  0.07674482  0.54269157  0.24968029     0.07300
C471        C  0.08383342  0.53852214  0.22249192    -0.07200
C472        C  0.09421421  0.55821139  0.20208854     0.04800
C473        C  0.09778732  0.58286068  0.20888594    -0.14500
C474        C  0.09057281  0.58689931  0.23622515    -0.07800
C475        C  0.06526684  0.52096139  0.27021687     0.05700
C476        C  0.03957418  0.51096362  0.27874567    -0.08900
C477        C  0.02774960  0.48985311  0.29735171     0.00700
C478        C  0.04178905  0.47838075  0.30765475     0.00600
C479        C  0.06745059  0.48833576  0.29884169    -0.12500
C480        C  0.07926375  0.50948304  0.28039464     0.01000
C481        C  0.00094203  0.47969566  0.30439293     0.40300
C482        C  0.10591962  0.51940525  0.27270406     0.36900
C483        C  0.07336552  0.57234040  0.28442929     0.36700
C484        C  0.09991787  0.55203233  0.17409666     0.37400
N485        N  0.97941932  0.47155285  0.30987152    -0.43400
N486        N  0.12727430  0.52734182  0.26655510    -0.43800
N487        N  0.10441356  0.54701323  0.15167487    -0.41200
N488        N  0.06788909  0.57649940  0.30676458    -0.42600
H489        H  0.09322507  0.60563748  0.24186439     0.13600
H490        H  0.08084317  0.51960424  0.21706129     0.10000
H491        H  0.02863185  0.51947105  0.27047308     0.11100
H492        H  0.07850002  0.47982818  0.30678405     0.16900
C493        C  0.16291795  0.37310069  0.36130279    -0.01300
C494        C  0.16348539  0.39526962  0.37254717     0.07300
C495        C  0.18675963  0.41545379  0.38332564    -0.07200
C496        C  0.20936308  0.41407542  0.38249652     0.04800
C497        C  0.20900353  0.39233423  0.37022524    -0.14500
C498        C  0.18568665  0.37201890  0.35972136    -0.07800
C499        C  0.13998619  0.39764546  0.37387026     0.05700
C500        C  0.13101868  0.40029059  0.40065662    -0.08900
C501        C  0.10886484  0.40239515  0.40306157     0.00700
C502        C  0.09496728  0.40171012  0.37811933     0.00600
C503        C  0.10452469  0.39971070  0.35123608    -0.12500
C504        C  0.12682130  0.39787504  0.34894568     0.01000
C505        C  0.10130995  0.40557274  0.43146113     0.40300
C506        C  0.13615344  0.39685336  0.32073380     0.36900
C507        C  0.13902687  0.35081923  0.35246616     0.36700
C508        C  0.23274062  0.43535150  0.39405974     0.37400
N509        N  0.09533729  0.40817809  0.45424043    -0.43400
N510        N  0.14362702  0.39599141  0.29814378    -0.43800
N511        N  0.25144204  0.45228012  0.40353237    -0.41200
N512        N  0.11981839  0.33294526  0.34555545    -0.42600
H513        H  0.18517829  0.35502335  0.35089819     0.13600
H514        H  0.18726068  0.43238619  0.39234069     0.10000
H515        H  0.14135922  0.40057152  0.41985589     0.11100
H516        H  0.09456772  0.39952738  0.33176918     0.16900
C517        C  0.32825755  0.42241233  0.02377740    -0.01300
C518        C  0.33215263  0.41056729  0.49304842     0.07300
C519        C  0.35054696  0.40277919  0.49185950    -0.07200
C520        C  0.37542251  0.42561856  0.00988103     0.04800
C521        C  0.37052892  0.42977586  0.03853807    -0.14500
C522        C  0.34669318  0.42782848  0.04508143    -0.07800
C523        C  0.31502474  0.40539531  0.46812609     0.05700
C524        C  0.32226562  0.42482440  0.44756317    -0.08900
C525        C  0.30738040  0.42059404  0.42296383     0.00700
C526        C  0.28487015  0.39650609  0.41866529     0.00600
C527        C  0.27726205  0.37722479  0.43956652    -0.12500
C528        C  0.29224768  0.38149598  0.46423436     0.01000
C529        C  0.31527115  0.44138595  0.40265402     0.40300
C530        C  0.28394033  0.36127822  0.48532578     0.36900
C531        C  0.30455353  0.42163996  0.03133205     0.36700
C532        C  0.39954963  0.42790580  0.00103013     0.37400
N533        N  0.32148601  0.45801749  0.38637042    -0.43400
N534        N  0.27728150  0.34512265  0.50230889    -0.43800
N535        N  0.41884560  0.42973826  0.99379587    -0.41200
N536        N  0.28556229  0.42103968  0.03738137    -0.42600
H537        H  0.34251985  0.43091768  0.06685001     0.13600
H538        H  0.35079362  0.39174098  0.47354726     0.10000
H539        H  0.33968971  0.44328702  0.45071235     0.11100
H540        H  0.25980141  0.35880237  0.43643851     0.16900
C541        C  0.32604756  0.41409829  0.21269833    -0.01300
C542        C  0.32984401  0.40717528  0.24035900     0.07300
C543        C  0.35233687  0.40622192  0.24592611    -0.07200
C544        C  0.37160399  0.41346089  0.22507571     0.04800
C545        C  0.36882706  0.42250235  0.19797124    -0.14500
C546        C  0.34550172  0.42196436  0.19205046    -0.07800
C547        C  0.31117967  0.40168364  0.26413832     0.05700
C548        C  0.30038055  0.37785859  0.27839085    -0.08900
C549        C  0.28475905  0.37296471  0.30261407     0.00700
C550        C  0.27939928  0.39197210  0.31270635     0.00600
C551        C  0.28949882  0.41544421  0.29799395    -0.12500
C552        C  0.30557280  0.42059519  0.27419933     0.01000
C553        C  0.27477446  0.34850155  0.31705565     0.40300
C554        C  0.31752249  0.44609686  0.26184083     0.36900
C555        C  0.30220848  0.41295856  0.20485666     0.36700
C556        C  0.39391000  0.41148075  0.23246491     0.37400
N557        N  0.26680787  0.32889337  0.32863075    -0.43400
N558        N  0.32709948  0.46655701  0.25199591    -0.43800
N559        N  0.41162712  0.40961994  0.23844237    -0.41200
N560        N  0.28309884  0.41201631  0.19855406    -0.42600
H561        H  0.34237451  0.42787879  0.17119865     0.13600
H562        H  0.35511701  0.40030775  0.26695669     0.10000
H563        H  0.30467302  0.36328086  0.27094881     0.11100
H564        H  0.28594999  0.43034752  0.30610112     0.16900
C565        C  0.96821654  0.67153234  0.13958379    -0.01300
C566        C  0.97245640  0.65379928  0.12410314     0.07300
C567        C  0.95285193  0.63555747  0.10639951    -0.07200
C568        C  0.92928387  0.63489406  0.10377394     0.04800
C569        C  0.92511641  0.65289165  0.11897330    -0.14500
C570        C  0.94471330  0.67097008  0.13689662    -0.07800
C571        C  0.99724821  0.65402647  0.12601154     0.05700
C572        C  0.00458069  0.64812971  0.15216226    -0.08900
C573        C  0.02789368  0.64823259  0.15484869     0.00700
C574        C  0.04446152  0.65436813  0.13084139     0.00600
C575        C  0.03681311  0.66013576  0.10464598    -0.12500
C576        C  0.01354086  0.66000758  0.10208849     0.01000
C577        C  0.03379701  0.64145062  0.18236948     0.40300
C578        C  0.00707492  0.66668171  0.07482826     0.36900
C579        C  0.98790952  0.69082077  0.15785198     0.36700
C580        C  0.90942640  0.61495851  0.08622375     0.37400
N581        N  0.03841330  0.63599963  0.20447974    -0.43400
N582        N  0.00188787  0.67201150  0.05297947    -0.43800
N583        N  0.89353191  0.59899190  0.07213399    -0.41200
N584        N  0.00371007  0.70622870  0.17251918    -0.42600
H585        H  0.94172428  0.68487604  0.14863216     0.13600
H586        H  0.95594009  0.62165771  0.09478516     0.10000
H587        H  0.99191225  0.64328569  0.17053306     0.11100
H588        H  0.04915213  0.66504318  0.08598794     0.16900
C589        C  0.80697753  0.63928160  0.26797119    -0.01300
C590        C  0.79920367  0.63844623  0.23927523     0.07300
C591        C  0.77366636  0.63172404  0.23343640    -0.07200
C592        C  0.75581604  0.62562913  0.25554797     0.04800
C593        C  0.76335046  0.62574647  0.28436118    -0.14500
C594        C  0.78906313  0.63279241  0.29015720    -0.07800
C595        C  0.81692687  0.64305987  0.21492074     0.05700
C596        C  0.82726293  0.62678378  0.21153943    -0.08900
C597        C  0.84273268  0.62927883  0.18795691     0.00700
C598        C  0.84847388  0.64871913  0.16737208     0.00600
C599        C  0.83827716  0.66513574  0.17094612    -0.12500
C600        C  0.82240933  0.66229220  0.19423951     0.01000
C601        C  0.85101122  0.61059105  0.18454106     0.40300
C602        C  0.81174216  0.67912635  0.19621747     0.36900
C603        C  0.83329194  0.64700470  0.27516042     0.36700
C604        C  0.72969458  0.61821343  0.24770382     0.37400
N605        N  0.85759367  0.59557588  0.18180837    -0.43400
N606        N  0.80296309  0.69242710  0.19759451    -0.43800
N607        N  0.70879679  0.61234032  0.24137766    -0.41200
N608        N  0.85439976  0.65321885  0.28084863    -0.42600
H609        H  0.79522322  0.63324109  0.31210453     0.13600
H610        H  0.76749324  0.63067167  0.21137914     0.10000
H611        H  0.82250379  0.61149306  0.22693746     0.11100
H612        H  0.84245061  0.68004343  0.15522037     0.16900
C613        C  0.82794460  0.62604570  0.02164229    -0.01300
C614        C  0.82361734  0.64611005  0.01281463     0.07300
C615        C  0.83529489  0.66948698  0.02803771    -0.07200
C616        C  0.85052466  0.67279463  0.05218916     0.04800
C617        C  0.85435547  0.65253668  0.06125807    -0.14500
C618        C  0.84348726  0.62953938  0.04550392    -0.07800
C619        C  0.80532937  0.64223086  0.98928569     0.05700
C620        C  0.78292559  0.64302530  0.99571326    -0.08900
C621        C  0.75607183  0.61925398  0.47782289     0.00700
C622        C  0.76305005  0.62090345  0.44858750     0.00600
C623        C  0.78879592  0.62886622  0.44160087    -0.12500
C624        C  0.80730321  0.63499317  0.46303760     0.01000
C625        C  0.72979710  0.60954781  0.48686568     0.40300
C626        C  0.83347563  0.64299752  0.45493978     0.36900
C627        C  0.81525642  0.60110385  0.00781690     0.36700
C628        C  0.86171196  0.69691767  0.06765036     0.37400
N629        N  0.70877118  0.60156936  0.49436308    -0.43400
N630        N  0.85446894  0.64937444  0.44855595    -0.43800
N631        N  0.87072725  0.71623821  0.08007352    -0.41200
N632        N  0.80508093  0.58111611  0.99674287    -0.42600
H633        H  0.84603471  0.61378014  0.05279744     0.13600
H634        H  0.83199423  0.68492769  0.02140885     0.10000
H635        H  0.78013937  0.64797341  0.01726549     0.11100
H636        H  0.79450768  0.63026951  0.41933737     0.16900
C637        C  0.67172725  0.74888101  0.36089021    -0.01300
C638        C  0.69273024  0.74819649  0.37337024     0.07300
C639        C  0.71247812  0.77025718  0.38664930    -0.07200
C640        C  0.71156395  0.79307770  0.38756279     0.04800
C641        C  0.69063135  0.79387294  0.37486575    -0.14500
C642        C  0.67088614  0.77172331  0.36159097    -0.07800
C643        C  0.69438571  0.72453530  0.37281535     0.05700
C644        C  0.70232085  0.71799338  0.34758798    -0.08900
C645        C  0.70367697  0.69543049  0.34596456     0.00700
C646        C  0.69672509  0.67884008  0.37004993     0.00600
C647        C  0.68918693  0.68587865  0.39546866    -0.12500
C648        C  0.68797234  0.70851141  0.39697282     0.01000
C649        C  0.71275576  0.69027852  0.31949426     0.40300
C650        C  0.67951367  0.71467921  0.42323766     0.36900
C651        C  0.65063533  0.72624179  0.34786636     0.36700
C652        C  0.73256540  0.81553708  0.40096241     0.37400
N653        N  0.72005526  0.68621200  0.29827231    -0.43400
N654        N  0.67272911  0.71972582  0.44420936    -0.43800
N655        N  0.74934209  0.83354187  0.41175574    -0.41200
N656        N  0.63368639  0.70805807  0.33755328    -0.42600
H657        H  0.65464375  0.77222798  0.35208505     0.13600
H658        H  0.72862764  0.76961063  0.39620174     0.10000
H659        H  0.70747823  0.73061531  0.32912334     0.11100
H660        H  0.68369737  0.67344145  0.41410393     0.16900
C661        C  0.68622945  0.90014046  0.03138591    -0.01300
C662        C  0.68143503  0.90422652  0.50109341     0.07300
C663        C  0.68855224  0.93062160  0.99568157    -0.07200
C664        C  0.68115862  0.94278378  0.01603340     0.04800
C665        C  0.67554387  0.93316997  0.04440159    -0.14500
C666        C  0.67876076  0.91217893  0.05178375    -0.07800
C667        C  0.68236755  0.88867168  0.47719577     0.05700
C668        C  0.66051700  0.87594133  0.45969592    -0.08900
C669        C  0.66077108  0.86259744  0.43538385     0.00700
C670        C  0.68318551  0.86174028  0.42847504     0.00600
C671        C  0.70475050  0.87359760  0.44658729    -0.12500
C672        C  0.70457620  0.88727287  0.47081525     0.01000
C673        C  0.63792126  0.85017456  0.41770886     0.40300
C674        C  0.73786105  0.93221714  0.96777371     0.36900
C675        C  0.68111284  0.87365741  0.53728648     0.36700
C676        C  0.67826870  0.96412551  0.00656881     0.37400
N677        N  0.61963115  0.84031153  0.40352406    -0.43400
N678        N  0.75488951  0.95265186  0.97267944    -0.43800
N679        N  0.67600263  0.98122042  0.99883460    -0.41200
N680        N  0.68220176  0.85551461  0.54335280    -0.42600
H681        H  0.67504135  0.90480540  0.07351589     0.13600
H682        H  0.69169568  0.93734144  0.97367788     0.10000
H683        H  0.64337722  0.87690074  0.46479915     0.11100
H684        H  0.72203589  0.87304953  0.44112153     0.16900
C685        C  0.65694741  0.87571065  0.29438545    -0.01300
C686        C  0.67622404  0.88517105  0.27318834     0.07300
C687        C  0.69788320  0.88235225  0.27648533    -0.07200
C688        C  0.70062901  0.87036602  0.30086711     0.04800
C689        C  0.68154030  0.86131837  0.32238314    -0.14500
C690        C  0.65977993  0.86398089  0.31881667    -0.07800
C691        C  0.67410295  0.89852352  0.24775602     0.05700
C692        C  0.68670742  0.92549292  0.24786953    -0.08900
C693        C  0.68272613  0.93883557  0.22573478     0.00700
C694        C  0.66573098  0.92494290  0.20295052     0.00600
C695        C  0.65411675  0.89786779  0.20242533    -0.12500
C696        C  0.65811057  0.88464903  0.22462450     0.01000
C697        C  0.69642697  0.96666825  0.22708335     0.40300
C698        C  0.64512237  0.85681879  0.22370430     0.36900
C699        C  0.63429931  0.87816484  0.29162259     0.36700
C700        C  0.72353983  0.86840784  0.30381847     0.37400
N701        N  0.70744803  0.98897187  0.22823711    -0.43400
N702        N  0.63475581  0.83452076  0.22310029    -0.43800
N703        N  0.74183187  0.86671921  0.30622299    -0.41200
N704        N  0.61614217  0.88009884  0.28931400    -0.42600
H705        H  0.64502805  0.85696015  0.33526295     0.13600
H706        H  0.71268810  0.88969517  0.26010527     0.10000
H707        H  0.69916251  0.93608749  0.26571500     0.11100
H708        H  0.64115611  0.88683503  0.18512508     0.16900
C709        C  0.75466749  0.09147618  0.15534547    -0.01300
C710        C  0.77277793  0.09924648  0.13296617     0.07300
C711        C  0.76779037  0.08286257  0.10945753    -0.07200
C712        C  0.74465463  0.05929126  0.10744863     0.04800
C713        C  0.72592427  0.05177299  0.12938299    -0.14500
C714        C  0.73152758  0.06787923  0.15347266    -0.07800
C715        C  0.79656312  0.12488426  0.13293435     0.05700
C716        C  0.82016638  0.12676004  0.13995390    -0.08900
C717        C  0.84306762  0.15065212  0.13928945     0.00700
C718        C  0.84255099  0.17297634  0.13080853     0.00600
C719        C  0.81893238  0.17106411  0.12372044    -0.12500
C720        C  0.79596595  0.14727610  0.12502406     0.01000
C721        C  0.86693071  0.15186123  0.14711770     0.40300
C722        C  0.77195764  0.14618103  0.11823338     0.36900
C723        C  0.75937404  0.10753516  0.18026930     0.36700
C724        C  0.74102807  0.04306136  0.08294842     0.37400
N725        N  0.88612084  0.15300931  0.15348243    -0.43400
N726        N  0.75261091  0.14515596  0.11300765    -0.43800
N727        N  0.73819640  0.03007372  0.06332280    -0.41200
N728        N  0.76316065  0.12040887  0.20025027    -0.42600
H729        H  0.71753922  0.06234580  0.17060857     0.13600
H730        H  0.78189959  0.08872993  0.09239653     0.10000
H731        H  0.82064601  0.10955252  0.14605018     0.11100
H732        H  0.81842074  0.18825264  0.11760482     0.16900
C733        C  0.95263302  0.27332236  0.21045679    -0.01300
C734        C  0.93924459  0.27949366  0.23079075     0.07300
C735        C  0.91260963  0.26927569  0.22782574    -0.07200
C736        C  0.89933126  0.25378840  0.20433210     0.04800
C737        C  0.91283024  0.24814285  0.18349626    -0.14500
C738        C  0.93935136  0.25765664  0.18707137    -0.07800
C739        C  0.95278727  0.29819733  0.25409085     0.05700
C740        C  0.96838491  0.32430411  0.24706935    -0.08900
C741        C  0.97934395  0.34310134  0.26850573     0.00700
C742        C  0.97466236  0.33572678  0.29766525     0.00600
C743        C  0.95945798  0.30943283  0.30454452    -0.12500
C744        C  0.94862658  0.29070063  0.28303766     0.01000
C745        C  0.99396066  0.36980629  0.25983673     0.40300
C746        C  0.93343834  0.26388821  0.29105390     0.36900
C747        C  0.97997617  0.28308595  0.21300599     0.36700
C748        C  0.87233567  0.24551116  0.20110426     0.37400
N749        N  0.00560243  0.39118258  0.25280778    -0.43400
N750        N  0.92133575  0.24236313  0.29736733    -0.43800
N751        N  0.85071477  0.23892728  0.19850941    -0.41200
N752        N  0.00189152  0.29089048  0.21502715    -0.42600
H753        H  0.94980467  0.25334777  0.17112862     0.13600
H754        H  0.90238664  0.27430169  0.24333767     0.10000
H755        H  0.97129699  0.33006304  0.22472945     0.11100
H756        H  0.95599427  0.30347935  0.32680263     0.16900
C757        C  0.92049847  0.28816342  0.04918576    -0.01300
C758        C  0.93719677  0.28360321  0.03218917     0.07300
C759        C  0.94018591  0.26231054  0.03799796    -0.07200
C760        C  0.92699924  0.24577211  0.06086632     0.04800
C761        C  0.91033614  0.25038687  0.07791242    -0.14500
C762        C  0.90719603  0.27154990  0.07185500    -0.07800
C763        C  0.95114610  0.30065244  0.00783465     0.05700
C764        C  0.97467656  0.32326480  0.01273664    -0.08900
C765        C  0.98618854  0.32923435  0.48264171     0.00700
C766        C  0.97169865  0.33233822  0.46064120     0.00600
C767        C  0.94465141  0.31694746  0.46117997    -0.12500
C768        C  0.93205137  0.29951339  0.48342109     0.01000
C769        C  0.01399728  0.34394843  0.48325808     0.40300
C770        C  0.90422375  0.28507835  0.48365994     0.36900
C771        C  0.91709014  0.31000665  0.04395974     0.36700
C772        C  0.93165947  0.22490813  0.06725428     0.37400
N773        N  0.03628342  0.35578081  0.48384042    -0.43400
N774        N  0.88192936  0.27360221  0.48399932    -0.43800
N775        N  0.93547711  0.20825034  0.07247264    -0.41200
N776        N  0.91445675  0.32756732  0.03975204    -0.42600
H777        H  0.89481414  0.27543106  0.08534984     0.13600
H778        H  0.95307423  0.25885477  0.02489862     0.10000
H779        H  0.98292062  0.32729529  0.03410813     0.11100
H780        H  0.93315112  0.31912215  0.44468107     0.16900
C781        C  0.32605615  0.93006979  0.36761347    -0.01300
C782        C  0.34863989  0.93180261  0.37890290     0.07300
C783        C  0.34736141  0.91029813  0.39238512    -0.07200
C784        C  0.32385200  0.88710583  0.39464407     0.04800
C785        C  0.30120684  0.88532047  0.38321974    -0.14500
C786        C  0.30260459  0.90690378  0.36972816    -0.07800
C787        C  0.37362247  0.95619776  0.37746168     0.05700
C788        C  0.37887446  0.97535948  0.39785015    -0.08900
C789        C  0.40201105  0.99894595  0.39711138     0.00700
C790        C  0.42044554  0.00363697  0.37557985     0.00600
C791        C  0.41489364  0.98450562  0.35483661    -0.12500
C792        C  0.39172616  0.96084054  0.35572718     0.01000
C793        C  0.40582198  0.01833847  0.41801454     0.40300
C794        C  0.38681259  0.94165198  0.33411301     0.36900
C795        C  0.32663050  0.95177755  0.35352162     0.36700
C796        C  0.32359923  0.86517754  0.40777447     0.37400
N797        N  0.40882341  0.03390452  0.43470150    -0.43400
N798        N  0.38284597  0.92625471  0.31679828    -0.43800
N799        N  0.32333558  0.84756631  0.41827805    -0.41200
N800        N  0.32717206  0.96922078  0.34223457    -0.42600
H801        H  0.28530626  0.90559298  0.36075444     0.13600
H802        H  0.36477265  0.91165303  0.40105820     0.10000
H803        H  0.36471950  0.97189963  0.41428340     0.11100
H804        H  0.42885404  0.98786839  0.33820756     0.16900
C805        C  0.21826678  0.77313360  0.46502695    -0.01300
C806        C  0.20323772  0.77945541  0.48275603     0.07300
C807        C  0.20173398  0.80161645  0.47696895    -0.07200
C808        C  0.21459156  0.81716010  0.45327598     0.04800
C809        C  0.22937601  0.81061637  0.43537839    -0.14500
C810        C  0.23116784  0.78869177  0.44152069    -0.07800
C811        C  0.18889078  0.76273078  0.50719685     0.05700
C812        C  0.20547226  0.76791773  0.03388246    -0.08900
C813        C  0.19462728  0.75116961  0.05716537     0.00700
C814        C  0.17001548  0.72858019  0.05435970     0.00600
C815        C  0.15650437  0.72438878  0.02838880    -0.12500
C816        C  0.16595791  0.73910993  0.50296817     0.01000
C817        C  0.20973100  0.75761097  0.08313396     0.40300
C818        C  0.15390777  0.73180648  0.47510808     0.36900
C819        C  0.22043570  0.75058366  0.47048785     0.36700
C820        C  0.21150121  0.83901906  0.44696150     0.37400
N821        N  0.22205136  0.76292986  0.10378976    -0.43400
N822        N  0.14431397  0.72594157  0.45275276    -0.43800
N823        N  0.20895406  0.85647971  0.44175359    -0.41200
N824        N  0.22201830  0.73245076  0.47500355    -0.42600
H825        H  0.24235227  0.78352489  0.42760947     0.13600
H826        H  0.19010547  0.80641995  0.49058832     0.10000
H827        H  0.22463284  0.78465719  0.03574780     0.11100
H828        H  0.13755981  0.70751915  0.02571921     0.16900
C829        C  0.17203508  0.73779267  0.26449558    -0.01300
C830        C  0.18930414  0.76391721  0.25809666     0.07300
C831        C  0.19451883  0.77179365  0.22947580    -0.07200
C832        C  0.18318763  0.75389150  0.20718322     0.04800
C833        C  0.16656250  0.72747078  0.21351334    -0.14500
C834        C  0.16072092  0.71985781  0.24226474    -0.07800
C835        C  0.20332960  0.78282128  0.28112960     0.05700
C836        C  0.22929658  0.79056861  0.28583521    -0.08900
C837        C  0.24241678  0.80555329  0.30972748     0.00700
C838        C  0.22938686  0.81298801  0.32929433     0.00600
C839        C  0.20375539  0.80624219  0.32376966    -0.12500
C840        C  0.19072899  0.79140023  0.29977280     0.01000
C841        C  0.26864434  0.81161994  0.31462444     0.40300
C842        C  0.16439629  0.78491099  0.29485028     0.36900
C843        C  0.16661066  0.72881217  0.29375233     0.36700
C844        C  0.18842732  0.76331389  0.17810127     0.37400
N845        N  0.28967144  0.81651772  0.31854278    -0.43400
N846        N  0.14331847  0.77980092  0.29085485    -0.43800
N847        N  0.19251398  0.77098220  0.15483555    -0.41200
N848        N  0.16237006  0.72174590  0.31724145    -0.42600
H849        H  0.14805528  0.69968296  0.24744805     0.13600
H850        H  0.20762966  0.79194860  0.22458887     0.10000
H851        H  0.23898256  0.78395469  0.27145630     0.11100
H852        H  0.19377131  0.81217049  0.33857580     0.16900
C853        C  0.43251499  0.33556012  0.09712562    -0.01300
C854        C  0.44782391  0.33162327  0.11711796     0.07300
C855        C  0.46259811  0.35111448  0.13695573    -0.07200
C856        C  0.46190328  0.37411751  0.13758085     0.04800
C857        C  0.44613634  0.37793668  0.11797807    -0.14500
C858        C  0.43183286  0.35859605  0.09764707    -0.07800
C859        C  0.44921478  0.30758492  0.11753758     0.05700
C860        C  0.47236476  0.30883779  0.10970422    -0.08900
C861        C  0.47504994  0.28697828  0.11124213     0.00700
C862        C  0.45425118  0.26327094  0.12066414     0.00600
C863        C  0.43109416  0.26202921  0.12862232    -0.12500
C864        C  0.42844659  0.28395003  0.12716242     0.01000
C865        C  0.49980115  0.28978405  0.10462684     0.40300
C866        C  0.40461736  0.28200455  0.13654877     0.36900
C867        C  0.41770982  0.31643138  0.07562735     0.36700
C868        C  0.47842454  0.39385202  0.15773373     0.37400
N869        N  0.51986387  0.29243939  0.09960887    -0.43400
N870        N  0.38555130  0.28051629  0.14409413    -0.43800
N871        N  0.49177075  0.40967954  0.17381249    -0.41200
N872        N  0.40583008  0.30110503  0.05839480    -0.42600
H873        H  0.41985425  0.36135444  0.08229808     0.13600
H874        H  0.47473832  0.34830644  0.15203139     0.10000
H875        H  0.48852174  0.32709033  0.10279486     0.11100
H876        H  0.41512289  0.24392264  0.13614980     0.16900
C877        C  0.43989642  0.16048561  0.21414005    -0.01300
C878        C  0.46350182  0.17133292  0.22915378     0.07300
C879        C  0.48411676  0.19518055  0.22027835    -0.07200
C880        C  0.48182939  0.20766601  0.19608533     0.04800
C881        C  0.45862430  0.19622987  0.18037761    -0.14500
C882        C  0.43767615  0.17290455  0.18981176    -0.07800
C883        C  0.46784655  0.15703084  0.25240193     0.05700
C884        C  0.46621618  0.13342344  0.24581863    -0.08900
C885        C  0.47148592  0.11976027  0.26646099     0.00700
C886        C  0.47861271  0.12976900  0.29461808     0.00600
C887        C  0.47992399  0.15339297  0.30111834    -0.12500
C888        C  0.47473784  0.16702174  0.28035827     0.01000
C889        C  0.47018556  0.09605487  0.25757262     0.40300
C890        C  0.47645952  0.19113236  0.28829856     0.36900
C891        C  0.41788529  0.13647785  0.22314420     0.36700
C892        C  0.50400079  0.23135746  0.18663763     0.37400
N893        N  0.46914192  0.07708495  0.25031243    -0.43400
N894        N  0.47790442  0.21048157  0.29466056    -0.43800
N895        N  0.52169146  0.25030441  0.17885757    -0.41200
N896        N  0.40032636  0.11723378  0.23049785    -0.42600
H897        H  0.41984495  0.16405129  0.17766445     0.13600
H898        H  0.50237757  0.20349697  0.23155299     0.10000
H899        H  0.46130079  0.12588641  0.22416663     0.11100
H900        H  0.48522317  0.16147947  0.32249865     0.16900
C901        C  0.48103468  0.13493349  0.00675564    -0.01300
C902        C  0.47453356  0.15426196  0.00288486     0.07300
C903        C  0.46321853  0.15695017  0.47144096    -0.07200
C904        C  0.46967625  0.14595828  0.44879075     0.04800
C905        C  0.47547915  0.12618923  0.45433833    -0.14500
C906        C  0.47352846  0.11720759  0.48257042    -0.07800
C907        C  0.47063172  0.16741799  0.02755842     0.05700
C908        C  0.48928325  0.19308582  0.03332341    -0.08900
C909        C  0.48672323  0.20610346  0.05685065     0.00700
C910        C  0.46490664  0.19345210  0.07475896     0.00600
C911        C  0.44618504  0.16774982  0.06884104    -0.12500
C912        C  0.44887654  0.15469094  0.04543855     0.01000
C913        C  0.50748168  0.23181039  0.06297732     0.40300
C914        C  0.42904805  0.12835357  0.04001511     0.36900
C915        C  0.48491201  0.12762110  0.03498926     0.36700
C916        C  0.46957070  0.15499239  0.42013912     0.37400
N917        N  0.52451501  0.25229367  0.06759740    -0.43400
N918        N  0.41320540  0.10722733  0.03565144    -0.43800
N919        N  0.46939173  0.16219764  0.39718955    -0.41200
N920        N  0.48813549  0.12183123  0.05759614    -0.42600
H921        H  0.47788869  0.10208401  0.48724029     0.13600
H922        H  0.45913777  0.17233931  0.46721940     0.10000
H923        H  0.50617434  0.20276094  0.01973623     0.11100
H924        H  0.42943854  0.15787279  0.08259781     0.16900
C925        C  0.44225023  0.23166876  0.62153381     0.03900
C926        C  0.44340851  0.22020616  0.59570454    -0.12300
C927        C  0.44495830  0.19763717  0.59607132     0.01400
C928        C  0.44516806  0.18641614  0.62220207    -0.10800
C929        C  0.44436216  0.19776834  0.64806579     0.03900
C930        C  0.44248123  0.22016635  0.64775599    -0.10200
H931        H  0.44385880  0.22921017  0.57542015     0.09400
H932        H  0.44717325  0.16941301  0.62244652     0.07000
H933        H  0.44210638  0.22908973  0.66781373     0.06800
C934        C  0.27598106  0.85982149  0.88183915     0.03900
C935        C  0.26426586  0.84838550  0.85556625    -0.12300
C936        C  0.24133041  0.82447111  0.85493808     0.01400
C937        C  0.23013099  0.81194326  0.88070795    -0.10800
C938        C  0.24146493  0.82312110  0.90700550     0.03900
C939        C  0.26417070  0.84720187  0.90753463    -0.10200
H940        H  0.27310919  0.85793644  0.83560042     0.09400
H941        H  0.21265746  0.79323816  0.88029478     0.10400
H942        H  0.27276664  0.85591002  0.92793945     0.06800
C943        C  0.86660709  0.19579333  0.63089178     0.03900
C944        C  0.87712391  0.20875492  0.60491209    -0.12300
C945        C  0.89875216  0.23367354  0.60501274     0.01400
C946        C  0.90983208  0.24554418  0.63110136    -0.10800
C947        C  0.89959877  0.23299131  0.65711629     0.03900
C948        C  0.87797525  0.20808920  0.65693193    -0.10200
H949        H  0.86828497  0.19965878  0.58472477     0.09400
H950        H  0.92634465  0.26493674  0.63113778     0.07000
H951        H  0.86980206  0.19843242  0.67704369     0.06800
C952        C  0.69741124  0.82279652  0.87529659     0.03900
C953        C  0.69593608  0.83445968  0.84994580    -0.12300
C954        C  0.69607880  0.85787376  0.85084464     0.01400
C955        C  0.69724105  0.86935556  0.87739079    -0.10800
C956        C  0.69796530  0.85743402  0.90286288     0.03900
C957        C  0.69810534  0.83418351  0.90178048    -0.10200
H958        H  0.69456467  0.82522343  0.82952700     0.09400
H959        H  0.69702704  0.88732234  0.87827701     0.07000
H960        H  0.69851488  0.82487209  0.92151024     0.06800
C961        C  0.89799578  0.64923587  0.61792305     0.03900
C962        C  0.88614813  0.64835171  0.59171640    -0.12300
C963        C  0.86288829  0.64851280  0.59123295     0.01400
C964        C  0.85120565  0.64884449  0.61704966    -0.10800
C965        C  0.86266273  0.64929064  0.64332522     0.03900
C966        C  0.88636415  0.64996982  0.64368347    -0.10200
H967        H  0.89505320  0.64764817  0.57179572     0.09400
H968        H  0.83265846  0.64785022  0.61668747     0.07000
H969        H  0.89545296  0.65048125  0.66394026     0.06800
C970        C  0.23517254  0.39727896  0.86783034     0.03900
C971        C  0.24701986  0.39906398  0.89429076    -0.12300
C972        C  0.27129654  0.40126794  0.89526878     0.01400
C973        C  0.28340030  0.40087259  0.86984431    -0.10800
C974        C  0.27185527  0.39921348  0.84318739     0.03900
C975        C  0.24754032  0.39728521  0.84230928    -0.10200
H976        H  0.23786218  0.39987544  0.91397068     0.09400
H977        H  0.30234892  0.40281030  0.87083946     0.07000
H978        H  0.23883095  0.39710993  0.82190704     0.06800
O979        O  0.97082877  0.34972471  0.84520832    -0.77800
C980        C  0.98671859  0.35523450  0.93900415     0.83300
O981        O  0.96139590  0.41896134  0.88603965    -0.78900
O982        O  0.04262422  0.44062826  0.93539538    -0.80400
O983        O  0.05944096  0.40336698  0.85340891    -0.80200
O984        O  0.00430221  0.37538730  0.81773863    -0.78800
Zn985      Zn  0.97546206  0.37070360  0.88095330     1.55700
O986        O  0.06096812  0.40318211  0.90090472    -0.80200
Cd987      Cd  0.02677196  0.40542849  0.84491312     1.59700
Cd988      Cd  0.00043230  0.43225826  0.88189075     1.59600
O989        O  0.03720790  0.43931216  0.82386129    -0.80200
O990        O  0.00757547  0.40318703  0.88046392    -1.90700
Cd991      Cd  0.02952232  0.40593587  0.91383446     1.59900
O992        O  0.01469353  0.45482909  0.84562421    -0.80100
O993        O  0.00832788  0.37595404  0.94187875    -0.78800
C994        C  0.94224128  0.39602366  0.88595533     0.83700
C995        C  0.98309805  0.35451385  0.82162212     0.83400
O996        O  0.97342986  0.35062301  0.91616962    -0.77700
C997        C  0.07015849  0.40239969  0.87658117     0.84200
O998        O  0.94526396  0.37654514  0.88354195    -0.77800
C999        C  0.02996470  0.45590521  0.82598997     0.84300
C1000       C  0.03561842  0.45748043  0.93439044     0.84700
O1001       O  0.01914713  0.45621038  0.91624077    -0.80300
O1002       O  0.16902874  0.70974878  0.59793272    -0.77800
C1003       C  0.15354680  0.70646655  0.68965688     0.83300
O1004       O  0.17776369  0.63967173  0.63428873    -0.78900
O1005       O  0.10100838  0.62152547  0.68921629    -0.80400
O1006       O  0.07818357  0.65199837  0.60615664    -0.80200
O1007       O  0.13400707  0.68702876  0.57141648    -0.78800
Zn1008     Zn  0.16476723  0.68874303  0.63296849     1.55700
O1009       O  0.07772790  0.65344779  0.65370977    -0.80200
Cd1010     Cd  0.11292106  0.65445966  0.59628731     1.59700
Cd1011     Cd  0.13887807  0.62713153  0.63226864     1.59600
O1012       O  0.10516831  0.62226094  0.57216337    -0.80200
O1013       O  0.13231904  0.65662630  0.63192939    -1.90700
Cd1014     Cd  0.11137535  0.65463431  0.66612108     1.59900
O1015       O  0.12400211  0.60423807  0.59628280    -0.80100
O1016       O  0.13180289  0.68601290  0.69299950    -0.78800
C1017       C  0.19722329  0.66240155  0.63451117     0.83700
C1018       C  0.15594183  0.70714444  0.57544846     0.83400
O1019       O  0.16737348  0.70998812  0.66757004    -0.77700
C1020       C  0.06723061  0.65207158  0.62953897     0.84200
O1021       O  0.19453844  0.68216971  0.63421879    -0.77800
C1022       C  0.11095677  0.60461515  0.57492897     0.84300
C1023       C  0.10636754  0.60357442  0.68659624     0.84700
O1024       O  0.12094574  0.60368870  0.66673820    -0.80300
O1025       O  0.49246852  0.12814402  0.83612676    -0.77800
C1026       C  0.48852309  0.11838088  0.93054436     0.83300
O1027       O  0.57224920  0.13541955  0.86987862    -0.78900
O1028       O  0.51524319  0.06158493  0.92901256    -0.80400
O1029       O  0.45394553  0.03832207  0.85153394    -0.80200
O1030       O  0.47828852  0.09194074  0.81126479    -0.78800
Zn1031     Zn  0.51093853  0.12471817  0.87049138     1.55700
O1032       O  0.45689310  0.03975811  0.89909201    -0.80200
Cd1033     Cd  0.48782987  0.07028125  0.83799092     1.59700
Cd1034     Cd  0.54443212  0.09645377  0.86939726     1.59600
O1035       O  0.50833775  0.05727583  0.81465545    -0.80200
O1036       O  0.50888273  0.09137868  0.87125848    -1.90700
Cd1037     Cd  0.49213188  0.07250250  0.90730306     1.59900
O1038       O  0.54803280  0.07883276  0.83310623    -0.80100
O1039       O  0.48609817  0.09620142  0.93418254    -0.78800
C1040       C  0.56989644  0.15541057  0.86925287     0.83700
C1041       C  0.48120222  0.11440991  0.81413738     0.83400
O1042       O  0.49667346  0.13055820  0.90699573    -0.77700
C1043       C  0.44468172  0.02900924  0.87611652     0.84200
O1044       O  0.54786634  0.15367660  0.86846733    -0.77800
C1045       C  0.53188035  0.06303737  0.81498585     0.84300
C1046       C  0.53806771  0.06585787  0.92499248     0.84700
O1047       O  0.55153070  0.07886634  0.90362695    -0.80300
O1048       O  0.65134372  0.92689382  0.58951421    -0.77800
C1049       C  0.66195643  0.93834219  0.68158781     0.83300
O1050       O  0.57290355  0.91778167  0.62445148    -0.78900
O1051       O  0.63014055  0.99160128  0.68432621    -0.80400
O1052       O  0.68896429  0.01625458  0.60414866    -0.80200
O1053       O  0.66457225  0.96311512  0.56493569    -0.78800
Zn1054     Zn  0.63446875  0.93003423  0.62469115     1.55700
O1055       O  0.68808236  0.01527956  0.65175733    -0.80200
Cd1056     Cd  0.65493222  0.98420103  0.59181424     1.59700
Cd1057     Cd  0.59996591  0.95664071  0.62451762     1.59600
O1058       O  0.63296575  0.99603622  0.56917700    -0.80200
O1059       O  0.63579554  0.96290050  0.62556686    -1.90700
Cd1060     Cd  0.65361717  0.98209725  0.66110301     1.59900
O1061       O  0.59422988  0.97405490  0.58944560    -0.80100
O1062       O  0.66298480  0.95977392  0.68622812    -0.78800
C1063       C  0.57573607  0.89810723  0.62461940     0.83700
C1064       C  0.66195774  0.94078594  0.56757611     0.83400
O1065       O  0.65219350  0.92560545  0.65866710    -0.77700
C1066       C  0.69933784  0.02572451  0.62828080     0.84200
O1067       O  0.59799009  0.90037321  0.62470692    -0.77800
C1068       C  0.60929244  0.98973799  0.57059987     0.84300
C1069       C  0.60681154  0.98606790  0.68103142     0.84700
O1070       O  0.59328429  0.97270066  0.65986748    -0.80300
C1071       C  0.73265527  0.38325441  0.89046011     0.81000
N1072       N  0.71311983  0.35852147  0.88760433    -0.77400
C1073       C  0.71765104  0.33852394  0.88981073     0.83400
N1074       N  0.74223410  0.34363279  0.89403649    -0.77300
C1075       C  0.76207015  0.36835736  0.89656913     0.83500
N1076       N  0.75695973  0.38794263  0.89490071    -0.79000
C1077       C  0.40664805  0.67351244  0.63064175     0.81000
N1078       N  0.42628841  0.69838074  0.63154137    -0.77400
C1079       C  0.42140907  0.71819016  0.63325196     0.83400
N1080       N  0.39660536  0.71287403  0.63429464    -0.77300
C1081       C  0.37679654  0.68815910  0.63307056     0.83500
N1082       N  0.38195523  0.66861964  0.63125530    -0.79000
O1083       O  0.38637373  0.44485083  0.58218521    -0.77800
C1084       C  0.38987395  0.43443594  0.67495048     0.83300
O1085       O  0.45633294  0.52422044  0.61581415    -0.78900
O1086       O  0.47487751  0.46818789  0.67498799    -0.80400
O1087       O  0.44183586  0.40991185  0.59367155    -0.80200
O1088       O  0.40953827  0.43255311  0.55662671    -0.78800
Zn1089     Zn  0.40735107  0.46202697  0.61747954     1.55700
O1090       O  0.44201689  0.41062848  0.64141532    -0.80200
Cd1091     Cd  0.44140165  0.44313278  0.58237707     1.59700
Cd1092     Cd  0.46937238  0.49817786  0.61583424     1.59600
O1093       O  0.47417595  0.46614445  0.55853430    -0.80200
O1094       O  0.43967931  0.46193382  0.61689546    -1.90700
Cd1095     Cd  0.44190782  0.44414037  0.65195094     1.59900
O1096       O  0.49179798  0.50472314  0.57961089    -0.80100
O1097       O  0.41051295  0.43362874  0.67832708    -0.78800
C1098       C  0.43363661  0.52081656  0.61743284     0.83700
C1099       C  0.38943550  0.43439139  0.55988392     0.83400
O1100       O  0.38616199  0.44401600  0.65233543    -0.77700
C1101       C  0.44174763  0.39984339  0.61775563     0.84200
O1102       O  0.41379477  0.49837902  0.61864414    -0.77800
C1103       C  0.49158382  0.48987172  0.55990884     0.84300
C1104       C  0.49268428  0.49163352  0.67220510     0.84700
O1105       O  0.49305187  0.50543224  0.65119931    -0.80300
O1106       O  0.74724147  0.60691323  0.83177584    -0.77800
C1107       C  0.74571320  0.61888140  0.92512131     0.83300
O1108       O  0.67708264  0.52869925  0.86893992    -0.78900
O1109       O  0.65948501  0.58748122  0.92548180    -0.80400
O1110       O  0.69488074  0.64351922  0.84468235    -0.80200
O1111       O  0.72355374  0.61862807  0.80637134    -0.78800
Zn1112     Zn  0.72688435  0.59089322  0.86776312     1.55700
O1113       O  0.69512975  0.64373047  0.89228726    -0.80200
Cd1114     Cd  0.69320548  0.60967422  0.83356455     1.59700
Cd1115     Cd  0.66454054  0.55538694  0.86768057     1.59600
O1116       O  0.65945472  0.58798134  0.81120672    -0.80200
O1117       O  0.69482713  0.59123978  0.86819030    -1.90700
Cd1118     Cd  0.69356211  0.60965203  0.90328699     1.59900
O1119       O  0.64160348  0.54931200  0.83173551    -0.80100
O1120       O  0.72500598  0.61935849  0.92960275    -0.78800
C1121       C  0.69979852  0.53193091  0.86957143     0.83700
C1122       C  0.74348528  0.61648196  0.80917273     0.83400
O1123       O  0.74887960  0.60944260  0.90203044    -0.77700
C1124       C  0.69558215  0.65426417  0.86842098     0.84200
O1125       O  0.71965408  0.55441063  0.86918159    -0.77800
C1126       C  0.64149463  0.56454938  0.81271345     0.84300
C1127       C  0.64076634  0.56449663  0.92235016     0.84700
O1128       O  0.64055535  0.54994950  0.90222604    -0.80300
C1129       C  0.58562984  0.51812566  0.76590598    -0.01300
C1130       C  0.57802932  0.53446542  0.75276675     0.07300
C1131       C  0.59128522  0.56082327  0.75957637    -0.07200
C1132       C  0.61202922  0.57111056  0.77880419     0.04800
C1133       C  0.61979295  0.55476119  0.79192161    -0.14500
C1134       C  0.60621218  0.52830096  0.78533608    -0.07800
C1135       C  0.55611170  0.52435194  0.73218089     0.05700
C1136       C  0.53163882  0.50504234  0.74119254    -0.08900
C1137       C  0.51068262  0.49425529  0.72226742     0.00700
C1138       C  0.51391517  0.50309692  0.69361075     0.00600
C1139       C  0.53827903  0.52306505  0.68493056    -0.12500
C1140       C  0.55929140  0.53357035  0.70380171     0.01000
C1141       C  0.48607356  0.47452673  0.73315298     0.40300
C1142       C  0.58412339  0.55309440  0.69319548     0.36900
C1143       C  0.57300902  0.49093148  0.75929107     0.36700
C1144       C  0.62426904  0.59833089  0.78527603     0.37400
N1145       N  0.46639937  0.45868904  0.74194607    -0.43400
N1146       N  0.60402270  0.56875476  0.68471635    -0.43800
N1147       N  0.63402909  0.62014359  0.79039728    -0.41200
N1148       N  0.56283017  0.46912910  0.75402064    -0.42600
H1149       H  0.61190765  0.51550650  0.79509339     0.13600
H1150       H  0.58523056  0.57339815  0.74996854     0.10000
H1151       H  0.52893921  0.49827043  0.76315547     0.11100
H1152       H  0.54115626  0.53003436  0.66304646     0.16900
C1153       C  0.54064682  0.53626527  0.50680253    -0.01300
C1154       C  0.55214362  0.52216124  0.49688854     0.07300
C1155       C  0.54348851  0.49728563  0.50760358    -0.07200
C1156       C  0.52378055  0.48640413  0.52802905     0.04800
C1157       C  0.51227384  0.50051628  0.53806765    -0.14500
C1158       C  0.52097296  0.52544468  0.52732761    -0.07800
C1159       C  0.57357187  0.53443190  0.97688210     0.05700
C1160       C  0.59698497  0.55530029  0.98628996    -0.08900
C1161       C  0.61912768  0.56542889  0.96915873     0.00700
C1162       C  0.61808937  0.55448857  0.94188268     0.00600
C1163       C  0.59438784  0.53371061  0.93249662    -0.12500
C1164       C  0.57229292  0.52376286  0.94962498     0.01000
C1165       C  0.64265891  0.58647587  0.98069475     0.40300
C1166       C  0.54834611  0.50292674  0.93858896     0.36900
C1167       C  0.54839104  0.56163361  0.49579619     0.36700
C1168       C  0.51679000  0.46135780  0.53951207     0.37400
N1169       N  0.66144025  0.60336085  0.99007358    -0.43400
N1170       N  0.52909655  0.48628877  0.92979150    -0.43800
N1171       N  0.51125673  0.44135741  0.54886258    -0.41200
N1172       N  0.55457445  0.58193961  0.48690232    -0.42600
H1173       H  0.51219608  0.53639824  0.53477908     0.13600
H1174       H  0.55259866  0.48656485  0.50042493     0.10000
H1175       H  0.59894978  0.56292684  0.50632380     0.11100
H1176       H  0.59294789  0.52532326  0.91150102     0.16900
C1177       C  0.39588760  0.60717827  0.61289251    -0.01300
C1178       C  0.41866248  0.60860094  0.62297034     0.07300
C1179       C  0.43792115  0.63156102  0.63524581    -0.07200
C1180       C  0.43462606  0.65299254  0.63811198     0.04800
C1181       C  0.41169854  0.65170014  0.62807898    -0.14500
C1182       C  0.39260808  0.62858262  0.61547090    -0.07800
C1183       C  0.42242533  0.58605667  0.62173539     0.05700
C1184       C  0.43972755  0.58585109  0.60173248    -0.08900
C1185       C  0.44370220  0.56478248  0.59993077     0.00700
C1186       C  0.43009686  0.54345934  0.61836472     0.00600
C1187       C  0.41272466  0.54372003  0.63831271    -0.12500
C1188       C  0.40904592  0.56493195  0.64035131     0.01000
C1189       C  0.46101901  0.56506003  0.57827967     0.40300
C1190       C  0.39205928  0.56501024  0.66220830     0.36900
C1191       C  0.37566211  0.58396788  0.59976154     0.36700
C1192       C  0.45456769  0.67528066  0.65284679     0.37400
N1193       N  0.47483461  0.56521825  0.56088738    -0.43400
N1194       N  0.37858263  0.56523398  0.67978805    -0.43800
N1195       N  0.47076626  0.69280416  0.66492430    -0.41200
N1196       N  0.35942404  0.56536223  0.58928907    -0.42600
H1197       H  0.37498103  0.62713475  0.60749735     0.13600
H1198       H  0.45534134  0.63249008  0.64327167     0.10000
H1199       H  0.44996828  0.60210357  0.58737155     0.11100
H1200       H  0.40241267  0.52753809  0.65274876     0.16900
C1201       C  0.70630996  0.42393515  0.86029361    -0.01300
C1202       C  0.71905079  0.44648708  0.87709956     0.07300
C1203       C  0.73622260  0.44820338  0.89853755    -0.07200
C1204       C  0.74077278  0.42778917  0.90347112     0.04800
C1205       C  0.72784959  0.40503031  0.88681069    -0.14500
C1206       C  0.71059949  0.40336386  0.86539523    -0.07800
C1207       C  0.71391897  0.46809119  0.87359715     0.05700
C1208       C  0.68988907  0.46446909  0.88194270    -0.08900
C1209       C  0.68470680  0.48479309  0.88086486     0.00700
C1210       C  0.70372721  0.50930634  0.87066054     0.00600
C1211       C  0.72772184  0.51266761  0.86200359    -0.12500
C1212       C  0.73297895  0.49244586  0.86360512     0.01000
C1213       C  0.66031398  0.48018320  0.89198924     0.40300
C1214       C  0.75807758  0.49715196  0.85492700     0.36900
C1215       C  0.68941214  0.42183598  0.83712291     0.36700
C1216       C  0.75798229  0.43037774  0.92652169     0.37400
N1217       N  0.64082216  0.47645521  0.90115202    -0.43400
N1218       N  0.77823837  0.50100474  0.84807354    -0.43800
N1219       N  0.77176137  0.43252458  0.94503910    -0.41200
N1220       N  0.67600316  0.42021049  0.81842266    -0.42600
H1221       H  0.70089333  0.38619163  0.85216499     0.13600
H1222       H  0.74582140  0.46543379  0.91170104     0.10000
H1223       H  0.67538295  0.44583727  0.89015914     0.11100
H1224       H  0.74259313  0.53124323  0.85408524     0.16900
C1225       C  0.50896818  0.84398685  0.64340496    -0.01300
C1226       C  0.50880023  0.82234486  0.63123803     0.07300
C1227       C  0.53034279  0.82589095  0.61569389    -0.07200
C1228       C  0.55211597  0.85039642  0.61270634     0.04800
C1229       C  0.55262020  0.87200997  0.62557975    -0.14500
C1230       C  0.53075684  0.86851993  0.64048789    -0.07800
C1231       C  0.48611130  0.79593501  0.63353581     0.05700
C1232       C  0.46252812  0.79090736  0.62177006    -0.08900
C1233       C  0.44106301  0.76596180  0.62186700     0.00700
C1234       C  0.44306642  0.74530047  0.63376728     0.00600
C1235       C  0.46664338  0.75055202  0.64592614    -0.12500
C1236       C  0.48801324  0.77552092  0.64597366     0.01000
C1237       C  0.41773318  0.76216510  0.60841117     0.40300
C1238       C  0.51159435  0.77973359  0.65919108     0.36900
C1239       C  0.48727966  0.84146450  0.65950198     0.36700
C1240       C  0.57312803  0.85288544  0.59527381     0.37400
N1241       N  0.39908401  0.75926048  0.59762929    -0.43400
N1242       N  0.53047308  0.78304454  0.66975622    -0.43800
N1243       N  0.58987222  0.85486394  0.58115019    -0.41200
N1244       N  0.46987090  0.83950446  0.67229242    -0.42600
H1245       H  0.53087437  0.88493524  0.65044705     0.13600
H1246       H  0.53000172  0.80942481  0.60556597     0.10000
H1247       H  0.46106444  0.80648061  0.61184664     0.11100
H1248       H  0.46839878  0.73511677  0.65561261     0.16900
C1249       C  0.68214790  0.26727785  0.87058548    -0.01300
C1250       C  0.65643927  0.25965963  0.87748959     0.07300
C1251       C  0.65086529  0.27792330  0.88900385    -0.07200
C1252       C  0.67036732  0.30353037  0.89352803     0.04800
C1253       C  0.69622028  0.31139598  0.88628408    -0.14500
C1254       C  0.70172126  0.29288862  0.87503068    -0.07800
C1255       C  0.63508839  0.23261499  0.87361471     0.05700
C1256       C  0.63449969  0.21307183  0.89069960    -0.08900
C1257       C  0.61380148  0.18766552  0.88909568     0.00700
C1258       C  0.59314928  0.18146630  0.87006851     0.00600
C1259       C  0.59395256  0.20099986  0.85271994    -0.12500
C1260       C  0.61473437  0.22634347  0.85421135     0.01000
C1261       C  0.61341124  0.16876660  0.90856567     0.40300
C1262       C  0.61493098  0.24555592  0.83541372     0.36900
C1263       C  0.68876834  0.24928616  0.85821678     0.36700
C1264       C  0.66327021  0.32089052  0.90668822     0.37400
N1265       N  0.61300417  0.15364058  0.92427381    -0.43400
N1266       N  0.61515341  0.26095050  0.82028720    -0.43800
N1267       N  0.65751148  0.33472302  0.91730228    -0.41200
N1268       N  0.69402349  0.23483550  0.84827153    -0.42600
H1269       H  0.72133816  0.29849975  0.86920212     0.13600
H1270       H  0.63116212  0.27201872  0.89481229     0.10000
H1271       H  0.64994006  0.21785940  0.90590875     0.11100
H1272       H  0.57824833  0.19644538  0.83797603     0.16900
C1273       C  0.57646413  0.03612756  0.95337965    -0.01300
C1274       C  0.56994031  0.03293804  0.98268228     0.07300
C1275       C  0.55339322  0.04119242  0.99319294    -0.07200
C1276       C  0.54314336  0.05233917  0.97496844     0.04800
C1277       C  0.54917336  0.05506514  0.94541536    -0.14500
C1278       C  0.56607257  0.04708589  0.93504060    -0.07800
C1279       C  0.57673058  0.02016918  0.51065395     0.05700
C1280       C  0.60278951  0.03496548  0.51831209    -0.08900
C1281       C  0.61383581  0.02561724  0.53786419     0.00700
C1282       C  0.59869862  0.00074185  0.54983947     0.00600
C1283       C  0.57248337  0.98613422  0.54235701    -0.12500
C1284       C  0.56143137  0.99565485  0.52305386     0.01000
C1285       C  0.64028641  0.04255697  0.54631693     0.40300
C1286       C  0.53445846  0.97978822  0.51601369     0.36900
C1287       C  0.59339160  0.02786994  0.94159612     0.36700
C1288       C  0.52764480  0.06202360  0.98748888     0.37400
N1289       N  0.66142150  0.05627741  0.55320004    -0.43400
N1290       N  0.51281267  0.96708369  0.51049712    -0.43800
N1291       N  0.50525569  0.06110168  0.50055821    -0.41200
N1292       N  0.60697528  0.02127637  0.93213898    -0.42600
H1293       H  0.57090111  0.04906612  0.91244584     0.13600
H1294       H  0.54144699  0.03406800  0.52129365     0.10000
H1295       H  0.61443871  0.05407310  0.50923988     0.11100
H1296       H  0.56057163  0.96709091  0.55146052     0.16900
C1297       C  0.57609754  0.05486511  0.76422021    -0.01300
C1298       C  0.56127239  0.02861513  0.75667651     0.07300
C1299       C  0.53613224  0.01383489  0.76729743    -0.07200
C1300       C  0.52578554  0.02478056  0.78566891     0.04800
C1301       C  0.54097306  0.05093242  0.79398782    -0.14500
C1302       C  0.56601090  0.06570088  0.78299238    -0.07800
C1303       C  0.57188259  0.01634133  0.73784606     0.05700
C1304       C  0.59312056  0.01456448  0.74732133    -0.08900
C1305       C  0.60471348  0.00447660  0.72956058     0.00700
C1306       C  0.59489861  0.99587987  0.70162802     0.00600
C1307       C  0.57311959  0.99709026  0.69263362    -0.12500
C1308       C  0.56165477  0.00722140  0.71039637     0.01000
C1309       C  0.62631472  0.00293515  0.74084942     0.40300
C1310       C  0.54004903  0.00899113  0.69955233     0.36900
C1311       C  0.60143828  0.07118642  0.75232830     0.36700
C1312       C  0.50002861  0.00844125  0.79653843     0.37400
N1313       N  0.64362195  0.00173441  0.74997017    -0.43400
N1314       N  0.52273983  0.01040661  0.69085266    -0.43800
N1315       N  0.47936909  0.99531447  0.80516548    -0.41200
N1316       N  0.62166990  0.08421584  0.74260472    -0.42600
H1317       H  0.57768059  0.08586538  0.78891317     0.13600
H1318       H  0.52470864  0.99362517  0.76145995     0.10000
H1319       H  0.60078293  0.02131840  0.76863984     0.11100
H1320       H  0.56529450  0.99068903  0.67130922     0.16900
C1321       C  0.25114270  0.64777307  0.64623572    -0.01300
C1322       C  0.27292786  0.67076888  0.63702580     0.07300
C1323       C  0.26978582  0.69090555  0.62652984    -0.07200
C1324       C  0.24547426  0.68868440  0.62542589     0.04800
C1325       C  0.22352294  0.66580142  0.63510317    -0.14500
C1326       C  0.22674588  0.64548456  0.64526784    -0.07800
C1327       C  0.29921375  0.67427473  0.63751127     0.05700
C1328       C  0.30473795  0.65869026  0.61993800    -0.08900
C1329       C  0.32978714  0.66270827  0.61817134     0.00700
C1330       C  0.34986739  0.68270834  0.63430919     0.00600
C1331       C  0.34420317  0.69817729  0.65199220    -0.12500
C1332       C  0.31915569  0.69406354  0.65379377     0.01000
C1333       C  0.33446711  0.64703320  0.59831184     0.40300
C1334       C  0.31428930  0.71019894  0.67274225     0.36900
C1335       C  0.25340371  0.62647264  0.65719548     0.36700
C1336       C  0.24374677  0.70990498  0.61323443     0.37400
N1337       N  0.33797661  0.63445314  0.58217065    -0.43400
N1338       N  0.31033892  0.72310831  0.68790154    -0.43800
N1339       N  0.24244174  0.72692576  0.60338876    -0.41200
N1340       N  0.25518970  0.60936385  0.66589553    -0.42600
H1341       H  0.21019616  0.62779324  0.65274174     0.13600
H1342       H  0.28647288  0.70840448  0.61885879     0.10000
H1343       H  0.28953693  0.64378727  0.60695961     0.11100
H1344       H  0.35937409  0.71344260  0.66464771     0.16900
C1345       C  0.81824591  0.35722134  0.90949310    -0.01300
C1346       C  0.83961673  0.38096000  0.90113324     0.07300
C1347       C  0.83564350  0.40125130  0.89326475    -0.07200
C1348       C  0.81091167  0.39813136  0.89282647     0.04800
C1349       C  0.78914385  0.37381143  0.89959097    -0.14500
C1350       C  0.79336467  0.35377118  0.90840246    -0.07800
C1351       C  0.86596646  0.38455260  0.89847078     0.05700
C1352       C  0.86963637  0.36791904  0.88042728    -0.08900
C1353       C  0.89417800  0.37118173  0.87609612     0.00700
C1354       C  0.91586642  0.39187282  0.88949960     0.00600
C1355       C  0.91222199  0.40864987  0.90738043    -0.12500
C1356       C  0.88756432  0.40500996  0.91218982     0.01000
C1357       C  0.89654708  0.35348199  0.85704417     0.40300
C1358       C  0.88485659  0.42206807  0.93191980     0.36900
C1359       C  0.82140549  0.33621507  0.91961139     0.36700
C1360       C  0.80884178  0.42021768  0.88446869     0.37400
N1361       N  0.89840092  0.33924026  0.84183387    -0.43400
N1362       N  0.88269875  0.43572658  0.94776155    -0.43800
N1363       N  0.80740770  0.43807965  0.87794163    -0.41200
N1364       N  0.82399254  0.31943401  0.92778835    -0.42600
H1365       H  0.77716320  0.33521909  0.91441170     0.13600
H1366       H  0.85196275  0.41953409  0.88670108     0.10000
H1367       H  0.85324180  0.35247291  0.86933676     0.11100
H1368       H  0.92863813  0.42434629  0.91816770     0.16900
C1369       C  0.09083179  0.53913181  0.54245578    -0.01300
C1370       C  0.08163878  0.54090559  0.51529056     0.07300
C1371       C  0.08291347  0.56399495  0.50713648    -0.07200
C1372       C  0.09293263  0.58522505  0.52572817     0.04800
C1373       C  0.10170497  0.58342115  0.55338122    -0.14500
C1374       C  0.10081171  0.56026920  0.56114080    -0.07800
C1375       C  0.06964720  0.52162198  0.99287641     0.05700
C1376       C  0.04295235  0.50826387  0.98828035    -0.08900
C1377       C  0.03151143  0.48721799  0.96949437     0.00700
C1378       C  0.04694135  0.47927387  0.95483842     0.00600
C1379       C  0.07368823  0.49265392  0.95946091    -0.12500
C1380       C  0.08513881  0.51384612  0.97812709     0.01000
C1381       C  0.00379037  0.47333817  0.96667643     0.40300
C1382       C  0.11281319  0.52767443  0.98136713     0.36900
C1383       C  0.08935474  0.51550694  0.55197614     0.36700
C1384       C  0.09425067  0.60858326  0.51549354     0.37400
N1385       N  0.98157338  0.46208622  0.96449111    -0.43400
N1386       N  0.13499626  0.53880378  0.98394207    -0.43800
N1387       N  0.09530283  0.62727853  0.50720147    -0.41200
N1388       N  0.08814023  0.49655301  0.55956168    -0.42600
H1389       H  0.10730751  0.55834615  0.58219408     0.13600
H1390       H  0.07290496  0.56754929  0.98651512     0.10000
H1391       H  0.03160241  0.51266835  0.50228765     0.11100
H1392       H  0.08569494  0.48683018  0.94806855     0.16900
C1393       C  0.07806217  0.56616988  0.75494305    -0.01300
C1394       C  0.07405892  0.54163506  0.74760376     0.07300
C1395       C  0.08035986  0.53729543  0.72009483    -0.07200
C1396       C  0.09079449  0.55706744  0.69984607     0.04800
C1397       C  0.09522147  0.58190821  0.70718256    -0.14500
C1398       C  0.08855766  0.58606064  0.73475536    -0.07800
C1399       C  0.06303783  0.52000225  0.76811755     0.05700
C1400       C  0.03731248  0.50954521  0.77665852    -0.08900
C1401       C  0.02592510  0.48843325  0.79524624     0.00700
C1402       C  0.04051526  0.47757477  0.80558325     0.00600
C1403       C  0.06620173  0.48796761  0.79671006    -0.12500
C1404       C  0.07754522  0.50905990  0.77819537     0.01000
C1405       C  0.99900701  0.47760601  0.80223113     0.40300
C1406       C  0.10422706  0.51948291  0.77028125     0.36900
C1407       C  0.07206309  0.57147759  0.78320395     0.36700
C1408       C  0.09573309  0.55086270  0.67149010     0.37400
N1409       N  0.97739555  0.46887299  0.80767438    -0.43400
N1410       N  0.12559974  0.52784238  0.76392884    -0.43800
N1411       N  0.09961364  0.54581574  0.64878132    -0.41200
N1412       N  0.06723131  0.57569091  0.80585729    -0.42600
H1413       H  0.09183542  0.60497116  0.74070849     0.13600
H1414       H  0.07684945  0.51824426  0.71437371     0.10000
H1415       H  0.02602624  0.51768138  0.76840367     0.11100
H1416       H  0.07762168  0.47987742  0.80467603     0.16900
C1417       C  0.16449617  0.37493538  0.85936529    -0.01300
C1418       C  0.16377937  0.39721733  0.86754388     0.07300
C1419       C  0.18663992  0.41959983  0.87529741    -0.07200
C1420       C  0.21011745  0.42001060  0.87516949     0.04800
C1421       C  0.21088266  0.39775847  0.86695169    -0.14500
C1422       C  0.18808094  0.37544531  0.85882057    -0.07800
C1423       C  0.13931507  0.39744822  0.86939752     0.05700
C1424       C  0.12962939  0.39784653  0.89651663    -0.08900
C1425       C  0.10710502  0.39910518  0.89957668     0.00700
C1426       C  0.09389588  0.40034427  0.87490692     0.00600
C1427       C  0.10376217  0.39971277  0.84767491    -0.12500
C1428       C  0.12620889  0.39825479  0.84479192     0.01000
C1429       C  0.09831171  0.39904403  0.92838712     0.40300
C1430       C  0.13577968  0.39818501  0.81642556     0.36900
C1431       C  0.14118469  0.35113673  0.85268748     0.36700
C1432       C  0.23319218  0.44344421  0.88351453     0.37400
N1433       N  0.09134000  0.39892219  0.95153208    -0.43400
N1434       N  0.14346161  0.39808714  0.79371677    -0.43800
N1435       N  0.25171173  0.46215061  0.89027401    -0.41200
N1436       N  0.12245507  0.33203598  0.84751693    -0.42600
H1437       H  0.18864671  0.35825211  0.85281687     0.13600
H1438       H  0.18605372  0.43669868  0.88170503     0.10000
H1439       H  0.13980773  0.39718980  0.91543284     0.11100
H1440       H  0.09407864  0.40054421  0.82843363     0.16900
C1441       C  0.33172767  0.42487544  0.51670269    -0.01300
C1442       C  0.33346005  0.41869154  0.99536581     0.07300
C1443       C  0.35688765  0.42014324  0.98872224    -0.07200
C1444       C  0.36905465  0.40970283  0.51350432     0.04800
C1445       C  0.36929842  0.42482726  0.53706548    -0.14500
C1446       C  0.35008364  0.43176409  0.53847101    -0.07800
C1447       C  0.31547743  0.41458993  0.97170364     0.05700
C1448       C  0.32233533  0.43465500  0.95206751    -0.08900
C1449       C  0.30745977  0.43088044  0.92761114     0.00700
C1450       C  0.28544412  0.40660256  0.92250967     0.00600
C1451       C  0.27791534  0.38683714  0.94274648    -0.12500
C1452       C  0.29284360  0.39065683  0.96730694     0.01000
C1453       C  0.31519154  0.45208290  0.90790118     0.40300
C1454       C  0.28529965  0.36953136  0.98703250     0.36900
C1455       C  0.31288016  0.43304647  0.51879411     0.36700
C1456       C  0.38747758  0.40105433  0.51057548     0.37400
N1457       N  0.32127961  0.46902625  0.89208406    -0.43400
N1458       N  0.27931512  0.35266071  0.00292594    -0.43800
N1459       N  0.40221747  0.39410501  0.50808183    -0.41200
N1460       N  0.29776464  0.43957988  0.52046997    -0.42600
H1461       H  0.34968727  0.44319132  0.55627271     0.13600
H1462       H  0.36085794  0.41741388  0.96671441     0.10000
H1463       H  0.33965340  0.45312645  0.95561050     0.11100
H1464       H  0.26093850  0.36819446  0.93882026     0.16900
C1465       C  0.33045567  0.42200660  0.71668423    -0.01300
C1466       C  0.33392738  0.41258518  0.74288406     0.07300
C1467       C  0.35456290  0.40811481  0.74603215    -0.07200
C1468       C  0.37248443  0.41402798  0.72399909     0.04800
C1469       C  0.36998904  0.42492816  0.69804264    -0.14500
C1470       C  0.34836970  0.42807846  0.69460121    -0.07800
C1471       C  0.31765331  0.40938716  0.76813231     0.05700
C1472       C  0.29204404  0.38903399  0.76898943    -0.08900
C1473       C  0.27658697  0.38531279  0.79308749     0.00700
C1474       C  0.28677399  0.40239643  0.81663505     0.00600
C1475       C  0.31230072  0.42298679  0.81535071    -0.12500
C1476       C  0.32775841  0.42646872  0.79154494     0.01000
C1477       C  0.25085043  0.36325127  0.79362670     0.40300
C1478       C  0.35394441  0.44781522  0.79155538     0.36900
C1479       C  0.30931709  0.42670232  0.71247246     0.36700
C1480       C  0.39326704  0.40896986  0.72917175     0.37400
N1481       N  0.23021552  0.34556532  0.79408264    -0.43400
N1482       N  0.37495548  0.46484555  0.79159100    -0.43800
N1483       N  0.40982125  0.40479936  0.73349941    -0.41200
N1484       N  0.29234310  0.43041631  0.70912358    -0.42600
H1485       H  0.34574101  0.43605334  0.67490191     0.13600
H1486       H  0.35702953  0.40058356  0.76617624     0.10000
H1487       H  0.28432114  0.37579266  0.75103049     0.11100
H1488       H  0.32025049  0.43644549  0.83310886     0.16900
C1489       C  0.96842149  0.67173608  0.62848919    -0.01300
C1490       C  0.96950781  0.64949000  0.62107695     0.07300
C1491       C  0.94701860  0.62721403  0.61210207    -0.07200
C1492       C  0.92353230  0.62683985  0.61066780     0.04800
C1493       C  0.92242259  0.64898862  0.61849938    -0.14500
C1494       C  0.94490631  0.67126909  0.62734976    -0.07800
C1495       C  0.99393039  0.64909627  0.62303373     0.05700
C1496       C  0.00465303  0.65049392  0.65008213    -0.08900
C1497       C  0.02821276  0.65119118  0.65298610     0.00700
C1498       C  0.04166411  0.65059087  0.62822533     0.00600
C1499       C  0.03041388  0.64873288  0.60114296    -0.12500
C1500       C  0.00681576  0.64794721  0.59841990     0.01000
C1501       C  0.03783703  0.65265558  0.68170618     0.40300
C1502       C  0.99653295  0.64670946  0.57010737     0.36900
C1503       C  0.99131771  0.69539026  0.63664180     0.36700
C1504       C  0.90070304  0.60339079  0.60186702     0.37400
N1505       N  0.04539165  0.65380050  0.70479651    -0.43400
N1506       N  0.98825530  0.64571388  0.54744013    -0.43800
N1507       N  0.88235446  0.58464166  0.59483241    -0.41200
N1508       N  0.00973517  0.71433898  0.64304398    -0.42600
H1509       H  0.94408214  0.68836960  0.63314171     0.13600
H1510       H  0.94781658  0.61006930  0.60647699     0.10000
H1511       H  0.99456601  0.65119730  0.66904194     0.11100
H1512       H  0.04012917  0.64811573  0.58183976     0.16900
C1513       C  0.80621018  0.63669108  0.77037669    -0.01300
C1514       C  0.79970096  0.63814874  0.74169602     0.07300
C1515       C  0.77490100  0.63350985  0.73530141    -0.07200
C1516       C  0.75648862  0.62715895  0.75684316     0.04800
C1517       C  0.76269543  0.62493388  0.78561880    -0.14500
C1518       C  0.78776733  0.63004929  0.79195899    -0.07800
C1519       C  0.81780435  0.64275502  0.71778527     0.05700
C1520       C  0.82628853  0.62505298  0.71334645    -0.08900
C1521       C  0.84155226  0.62725985  0.68969364     0.00700
C1522       C  0.84885973  0.64772775  0.67015375     0.00600
C1523       C  0.84072971  0.66567845  0.67483413    -0.12500
C1524       C  0.82518437  0.66327078  0.69829104     0.01000
C1525       C  0.84780604  0.60723085  0.68481409     0.40300
C1526       C  0.81667812  0.68178806  0.70157769     0.36900
C1527       C  0.83173981  0.64208972  0.77819027     0.36700
C1528       C  0.73121215  0.62209607  0.74834868     0.37400
N1529       N  0.85271721  0.59113156  0.68076533    -0.43400
N1530       N  0.80966857  0.69649260  0.70402367    -0.43800
N1531       N  0.71101312  0.61812410  0.74143280    -0.41200
N1532       N  0.85220020  0.64640187  0.78440769    -0.42600
H1533       H  0.79303813  0.62880833  0.81388290     0.13600
H1534       H  0.76970176  0.63424894  0.71319918     0.10000
H1535       H  0.82010138  0.60885678  0.72782604     0.11100
H1536       H  0.84608347  0.68129277  0.65971121     0.16900
C1537       C  0.82617173  0.62029906  0.52275785    -0.01300
C1538       C  0.81859781  0.63834052  0.51547052     0.07300
C1539       C  0.82710017  0.66066671  0.53204504    -0.07200
C1540       C  0.84252747  0.66491311  0.55618648     0.04800
C1541       C  0.84958654  0.64654046  0.56395530    -0.14500
C1542       C  0.84176799  0.62462329  0.54677664    -0.07800
C1543       C  0.80016074  0.63326586  0.49199886     0.05700
C1544       C  0.77468917  0.62565804  0.49912426    -0.08900
C1545       C  0.76372999  0.63674207  0.97502058     0.00700
C1546       C  0.76655634  0.62885128  0.94722574     0.00600
C1547       C  0.78987929  0.62969242  0.94052334    -0.12500
C1548       C  0.80924784  0.63660139  0.96108396     0.01000
C1549       C  0.74147083  0.63847161  0.98331201     0.40300
C1550       C  0.83307357  0.63796763  0.95273811     0.36900
C1551       C  0.81698280  0.59660254  0.50683140     0.36700
C1552       C  0.85075236  0.68813133  0.57275423     0.37400
N1553       N  0.72381889  0.64015060  0.99007605    -0.43400
N1554       N  0.85221248  0.63914273  0.94610594    -0.43800
N1555       N  0.85733178  0.70670167  0.58608727    -0.41200
N1556       N  0.80950824  0.57759350  0.49407510    -0.42600
H1557       H  0.84688790  0.61031335  0.55289694     0.13600
H1558       H  0.82122270  0.67450998  0.52639926     0.10000
H1559       H  0.76920757  0.62402552  0.52150947     0.11100
H1560       H  0.79303084  0.62469383  0.91917093     0.16900
C1561       C  0.67740552  0.75390149  0.85741908    -0.01300
C1562       C  0.69695038  0.75123886  0.87086977     0.07300
C1563       C  0.71695322  0.77223960  0.88533262    -0.07200
C1564       C  0.71755010  0.79578818  0.88687904     0.04800
C1565       C  0.69769016  0.79836819  0.87397071    -0.14500
C1566       C  0.67787282  0.77739321  0.85912022    -0.07800
C1567       C  0.69674521  0.72657115  0.87042451     0.05700
C1568       C  0.70228158  0.71827023  0.84479154    -0.08900
C1569       C  0.70241639  0.69504767  0.84353683     0.00700
C1570       C  0.69658874  0.67951131  0.86844119     0.00600
C1571       C  0.69127832  0.68821995  0.89416258    -0.12500
C1572       C  0.69139407  0.71154536  0.89531483     0.01000
C1573       C  0.70923644  0.68824204  0.81655043     0.40300
C1574       C  0.68554116  0.71953121  0.92212419     0.36900
C1575       C  0.65649511  0.73266676  0.84229745     0.36700
C1576       C  0.73914094  0.81720842  0.90095598     0.37400
N1577       N  0.71476301  0.68287796  0.79491704    -0.43400
N1578       N  0.68091593  0.72606277  0.94354941    -0.43800
N1579       N  0.75643071  0.83441259  0.91220118    -0.41200
N1580       N  0.63978093  0.71564167  0.83014615    -0.42600
H1581       H  0.66260421  0.77931700  0.84911313     0.13600
H1582       H  0.73215899  0.77019484  0.89532133     0.10000
H1583       H  0.70672381  0.73014059  0.82575984     0.11100
H1584       H  0.68674270  0.67669639  0.91346627     0.16900
C1585       C  0.67964174  0.89623891  0.52971682    -0.01300
C1586       C  0.69068152  0.90907483  0.00293001     0.07300
C1587       C  0.67898988  0.92567896  0.49448464    -0.07200
C1588       C  0.67353138  0.93857197  0.51579607     0.04800
C1589       C  0.67079408  0.93009378  0.54454444    -0.14500
C1590       C  0.67462817  0.90934612  0.55119256    -0.07800
C1591       C  0.69483665  0.89476823  0.97966039     0.05700
C1592       C  0.67509558  0.86955792  0.97354211    -0.08900
C1593       C  0.67629763  0.85659556  0.94923253     0.00700
C1594       C  0.69752323  0.86902867  0.93054609     0.00600
C1595       C  0.71774718  0.89382754  0.93722947    -0.12500
C1596       C  0.71662613  0.90670996  0.96168741     0.01000
C1597       C  0.65476836  0.83129732  0.94292739     0.40300
C1598       C  0.72766643  0.90072194  0.48793105     0.36900
C1599       C  0.68900209  0.87854368  0.04008898     0.36700
C1600       C  0.66891851  0.95899939  0.50697696     0.37400
N1601       N  0.63751532  0.81103619  0.93785484    -0.43400
N1602       N  0.74619286  0.91154635  0.50162227    -0.43800
N1603       N  0.66507784  0.97524141  0.49978810    -0.41200
N1604       N  0.69119671  0.86123073  0.04709435    -0.42600
H1605       H  0.67273894  0.90265831  0.57311953     0.13600
H1606       H  0.68011815  0.93156579  0.47230234     0.10000
H1607       H  0.65814866  0.86043896  0.98710392     0.11100
H1608       H  0.73417151  0.90331148  0.92296398     0.16900
C1609       C  0.67044593  0.88691304  0.79798733    -0.01300
C1610       C  0.68685592  0.89191814  0.77437320     0.07300
C1611       C  0.70645404  0.88576584  0.77568667    -0.07200
C1612       C  0.70993611  0.87471835  0.80044615     0.04800
C1613       C  0.69347391  0.86966799  0.82421110    -0.14500
C1614       C  0.67384075  0.87585228  0.82265502    -0.07800
C1615       C  0.68372429  0.90390851  0.74835727     0.05700
C1616       C  0.69447687  0.93069777  0.74786945    -0.08900
C1617       C  0.68861640  0.94258912  0.72573696     0.00700
C1618       C  0.67141992  0.92736100  0.70369148     0.00600
C1619       C  0.66194764  0.90058187  0.70351880    -0.12500
C1620       C  0.66791627  0.88880778  0.72568113     0.01000
C1621       C  0.70052695  0.97034717  0.72642067     0.40300
C1622       C  0.65670719  0.86111813  0.72547840     0.36900
C1623       C  0.64994100  0.89289538  0.79721744     0.36700
C1624       C  0.73097621  0.86954476  0.80126592     0.37400
N1625       N  0.71012214  0.99259440  0.72702563    -0.43400
N1626       N  0.64775676  0.83893614  0.72538784    -0.43800
N1627       N  0.74777840  0.86530918  0.80195775    -0.41200
N1628       N  0.63355415  0.89773660  0.79645845    -0.42600
H1629       H  0.66097740  0.87181019  0.84069399     0.13600
H1630       H  0.71912337  0.88981196  0.75746234     0.10000
H1631       H  0.70683735  0.94223464  0.76535348     0.11100
H1632       H  0.64896592  0.88859094  0.68669452     0.16900
C1633       C  0.75625652  0.08775012  0.65595941    -0.01300
C1634       C  0.77224814  0.09687887  0.63165674     0.07300
C1635       C  0.76507698  0.08191522  0.60667710    -0.07200
C1636       C  0.74190374  0.05838350  0.60526157     0.04800
C1637       C  0.72502775  0.04967608  0.62915567    -0.14500
C1638       C  0.73283546  0.06441908  0.65451814    -0.07800
C1639       C  0.79630488  0.12226631  0.63150855     0.05700
C1640       C  0.81782537  0.12534879  0.64669637    -0.08900
C1641       C  0.84104263  0.14894217  0.64639702     0.00700
C1642       C  0.84282017  0.17005515  0.63092242     0.00600
C1643       C  0.82121584  0.16679492  0.61561077    -0.12500
C1644       C  0.79811655  0.14314602  0.61572767     0.01000
C1645       C  0.86298196  0.15066061  0.66120845     0.40300
C1646       C  0.77636034  0.14080348  0.59987935     0.36900
C1647       C  0.76320210  0.10229558  0.68235814     0.36700
C1648       C  0.73655397  0.04341289  0.57928045     0.37400
N1649       N  0.88058033  0.15204506  0.67305688    -0.43400
N1650       N  0.75889252  0.13883186  0.58717207    -0.43800
N1651       N  0.73244161  0.03142299  0.55848562    -0.41200
N1652       N  0.76879266  0.11388643  0.70356473    -0.42600
H1653       H  0.72042784  0.05799401  0.67319110     0.13600
H1654       H  0.77771466  0.08870968  0.58818407     0.10000
H1655       H  0.81654647  0.10915518  0.65847218     0.11100
H1656       H  0.82228543  0.18289472  0.60383688     0.16900
C1657       C  0.95146063  0.27417505  0.71036536    -0.01300
C1658       C  0.93739101  0.27871836  0.73139378     0.07300
C1659       C  0.91048822  0.26653109  0.72916842    -0.07200
C1660       C  0.89754706  0.25070792  0.70572228     0.04800
C1661       C  0.91169006  0.24666059  0.68419071    -0.14500
C1662       C  0.93854237  0.25808393  0.68714478    -0.07800
C1663       C  0.95040069  0.29769179  0.75465026     0.05700
C1664       C  0.96461283  0.32392122  0.74759693    -0.08900
C1665       C  0.97562037  0.34275868  0.76897417     0.00700
C1666       C  0.97238688  0.33533367  0.79814513     0.00600
C1667       C  0.95833957  0.30896994  0.80507424    -0.12500
C1668       C  0.94748895  0.29017876  0.78359305     0.01000
C1669       C  0.98891822  0.36950732  0.76031049     0.40300
C1670       C  0.93379011  0.26329597  0.79161066     0.36900
C1671       C  0.97915790  0.28614584  0.71192673     0.36700
C1672       C  0.87009918  0.24042076  0.70337533     0.37400
N1673       N  0.99951201  0.39091830  0.75331282    -0.43400
N1674       N  0.92288801  0.24171608  0.79791543    -0.43800
N1675       N  0.84810045  0.23221247  0.70157379    -0.41200
N1676       N  0.00136263  0.29576166  0.71308272    -0.42600
H1677       H  0.94953862  0.25498009  0.67078329     0.13600
H1678       H  0.89970640  0.27028795  0.74521641     0.10000
H1679       H  0.96655830  0.32969506  0.72529416     0.11100
H1680       H  0.95597466  0.30300789  0.82732342     0.16900
C1681       C  0.92297208  0.28838944  0.55218254    -0.01300
C1682       C  0.93368227  0.28025300  0.53057009     0.07300
C1683       C  0.93216700  0.25619930  0.53289912    -0.07200
C1684       C  0.92017134  0.24024968  0.55659815     0.04800
C1685       C  0.90943726  0.24842440  0.57824088    -0.14500
C1686       C  0.91087341  0.27244177  0.57566536    -0.07800
C1687       C  0.94650678  0.29681540  0.50546657     0.05700
C1688       C  0.97347454  0.31140856  0.50468301    -0.08900
C1689       C  0.98718591  0.34108569  0.99064810     0.00700
C1690       C  0.97598053  0.33620954  0.96287819     0.00600
C1691       C  0.95270138  0.31294816  0.95812061    -0.12500
C1692       C  0.94025799  0.29538169  0.98028760     0.01000
C1693       C  0.01089436  0.36442317  0.99763700     0.40300
C1694       C  0.91579048  0.27247749  0.97461668     0.36900
C1695       C  0.92488711  0.31337342  0.55109760     0.36700
C1696       C  0.92025023  0.21628329  0.55897168     0.37400
N1697       N  0.02985897  0.38313176  0.00330466    -0.43400
N1698       N  0.89612725  0.25414263  0.97023508    -0.43800
N1699       N  0.92038019  0.19710762  0.56096194    -0.41200
N1700       N  0.92652697  0.33343744  0.55024564    -0.42600
H1701       H  0.90290725  0.27894786  0.59239024     0.13600
H1702       H  0.94058693  0.25004205  0.51634021     0.10000
H1703       H  0.98456569  0.30933959  0.52176752     0.11100
H1704       H  0.94369409  0.30862452  0.93715162     0.16900
C1705       C  0.32515150  0.92921214  0.86451328    -0.01300
C1706       C  0.34681262  0.93304367  0.88033094     0.07300
C1707       C  0.34504435  0.91294229  0.89730371    -0.07200
C1708       C  0.32223899  0.88898213  0.89822032     0.04800
C1709       C  0.30048902  0.88500756  0.88220743    -0.14500
C1710       C  0.30227537  0.90537753  0.86558193    -0.07800
C1711       C  0.37169759  0.95768667  0.87897343     0.05700
C1712       C  0.38009448  0.97394283  0.90297408    -0.08900
C1713       C  0.40350590  0.99738906  0.90255055     0.00700
C1714       C  0.41924937  0.00474552  0.87773717     0.00600
C1715       C  0.41058880  0.98829113  0.85371313    -0.12500
C1716       C  0.38712250  0.96498715  0.85417216     0.01000
C1717       C  0.41025552  0.01376359  0.92753810     0.40300
C1718       C  0.37944768  0.94861277  0.82912054     0.36900
C1719       C  0.32594765  0.94951974  0.84715954     0.36700
C1720       C  0.32215481  0.86854967  0.91468179     0.37400
N1721       N  0.41553847  0.02687731  0.94755976    -0.43400
N1722       N  0.37320255  0.93548016  0.80905464    -0.43800
N1723       N  0.32209252  0.85220771  0.92792982    -0.41200
N1724       N  0.32663877  0.96578748  0.83318252    -0.42600
H1725       H  0.28569094  0.90267051  0.85341258     0.13600
H1726       H  0.36176122  0.91582224  0.90933725     0.10000
H1727       H  0.36811706  0.96840362  0.92199759     0.11100
H1728       H  0.42234608  0.99342504  0.83454638     0.16900
C1729       C  0.21563546  0.76929738  0.96113828    -0.01300
C1730       C  0.20599577  0.77872881  0.98258796     0.07300
C1731       C  0.20899863  0.80337604  0.97984494    -0.07200
C1732       C  0.22088208  0.81841432  0.95555505     0.04800
C1733       C  0.23000859  0.80871895  0.93375535    -0.14500
C1734       C  0.22742388  0.78425098  0.93690607    -0.07800
C1735       C  0.19240881  0.76272114  0.00774174     0.05700
C1736       C  0.19997093  0.76920686  0.53448648    -0.08900
C1737       C  0.18927304  0.75191318  0.55734379     0.00700
C1738       C  0.16677440  0.72750834  0.55297724     0.00600
C1739       C  0.15501970  0.72184150  0.52576695    -0.12500
C1740       C  0.16749396  0.74116107  0.00522290     0.01000
C1741       C  0.20238626  0.75972340  0.58461574     0.40300
C1742       C  0.15315083  0.73555864  0.97877105     0.36900
C1743       C  0.21368378  0.74435811  0.96369562     0.36700
C1744       C  0.22246294  0.84315152  0.95283664     0.37400
N1745       N  0.21310004  0.76604674  0.60634684    -0.43400
N1746       N  0.14172016  0.73110066  0.95753464    -0.43800
N1747       N  0.22373342  0.86297814  0.95054477    -0.41200
N1748       N  0.21206621  0.72436938  0.96590669    -0.42600
H1749       H  0.23460663  0.77681422  0.92031449     0.13600
H1750       H  0.20158054  0.81060088  0.99639973     0.10000
H1751       H  0.21767327  0.78743080  0.53762870     0.11100
H1752       H  0.13774887  0.70343433  0.52186111     0.16900
C1753       C  0.17350430  0.73597224  0.76320622    -0.01300
C1754       C  0.18776539  0.76252161  0.75686584     0.07300
C1755       C  0.18902442  0.77081483  0.72856308    -0.07200
C1756       C  0.17692384  0.75288010  0.70641656     0.04800
C1757       C  0.16365753  0.72618331  0.71255005    -0.14500
C1758       C  0.16152934  0.71804931  0.74110421    -0.07800
C1759       C  0.20224377  0.78160996  0.77958636     0.05700
C1760       C  0.22830463  0.78943938  0.78369196    -0.08900
C1761       C  0.24177673  0.80437936  0.80750522     0.00700
C1762       C  0.22905910  0.81178584  0.82752807     0.00600
C1763       C  0.20325518  0.80482707  0.82266051    -0.12500
C1764       C  0.18982019  0.78986682  0.79886878     0.01000
C1765       C  0.26797941  0.81023775  0.81201056     0.40300
C1766       C  0.16311706  0.78251359  0.79505785     0.36900
C1767       C  0.17164973  0.72672364  0.79216139     0.36700
C1768       C  0.17758142  0.76231915  0.67780480     0.37400
N1769       N  0.28896255  0.81490830  0.81570373    -0.43400
N1770       N  0.14171534  0.77660471  0.79192453    -0.43800
N1771       N  0.17780806  0.76987776  0.65494201    -0.41200
N1772       N  0.17022383  0.71944224  0.81541210    -0.42600
H1773       H  0.15132510  0.69760783  0.74604096     0.13600
H1774       H  0.19958874  0.79128226  0.72379341     0.10000
H1775       H  0.23777439  0.78286070  0.76895357     0.11100
H1776       H  0.19340384  0.81051297  0.83793869     0.16900
C1777       C  0.45494455  0.34650840  0.59665262    -0.01300
C1778       C  0.44135546  0.32775520  0.61778322     0.07300
C1779       C  0.42768845  0.33257716  0.63884949    -0.07200
C1780       C  0.42752651  0.35586848  0.63925505     0.04800
C1781       C  0.44128349  0.37486113  0.61818427    -0.14500
C1782       C  0.45469156  0.36976232  0.59687406    -0.07800
C1783       C  0.44132310  0.30302424  0.61844693     0.05700
C1784       C  0.46102263  0.30185153  0.63325671    -0.08900
C1785       C  0.46161934  0.27881053  0.63456880     0.00700
C1786       C  0.44212795  0.25637259  0.62096286     0.00600
C1787       C  0.42255402  0.25769621  0.60587136    -0.12500
C1788       C  0.42197166  0.28076824  0.60463160     0.01000
C1789       C  0.48293914  0.27892631  0.64906764     0.40300
C1790       C  0.40143104  0.28126668  0.58906489     0.36900
C1791       C  0.46931855  0.34227240  0.57464944     0.36700
C1792       C  0.41224068  0.35928486  0.66082516     0.37400
N1793       N  0.50000711  0.27894737  0.66064618    -0.43400
N1794       N  0.38498855  0.28173068  0.57660974    -0.43800
N1795       N  0.39993724  0.36201962  0.67803730    -0.41200
N1796       N  0.48085527  0.33885064  0.55705074    -0.42600
H1797       H  0.46530560  0.38412627  0.58058093     0.13600
H1798       H  0.41705443  0.31803170  0.65497095     0.10000
H1799       H  0.47604447  0.31904882  0.64366783     0.11100
H1800       H  0.40761353  0.24061479  0.59521006     0.16900
C1801       C  0.43071061  0.16086428  0.71764568    -0.01300
C1802       C  0.45480177  0.16299353  0.72326728     0.07300
C1803       C  0.47566118  0.17784844  0.70510572    -0.07200
C1804       C  0.47268517  0.19001730  0.68110183     0.04800
C1805       C  0.44848639  0.18748806  0.67503964    -0.14500
C1806       C  0.42772353  0.17320029  0.69361676    -0.07800
C1807       C  0.45895351  0.14981021  0.74776703     0.05700
C1808       C  0.45257548  0.12402173  0.74479022    -0.08900
C1809       C  0.45908666  0.11177300  0.76609210     0.00700
C1810       C  0.47208511  0.12546796  0.79130058     0.00600
C1811       C  0.47762620  0.15117606  0.79434393    -0.12500
C1812       C  0.47142226  0.16337690  0.77281746     0.01000
C1813       C  0.45274197  0.08548608  0.76080593     0.40300
C1814       C  0.47865621  0.19010130  0.77648961     0.36900
C1815       C  0.40888977  0.14601571  0.73611105     0.36700
C1816       C  0.49466213  0.20485860  0.66277256     0.37400
N1817       N  0.44769861  0.06446286  0.75632664    -0.43400
N1818       N  0.48451432  0.21154591  0.77929840    -0.43800
N1819       N  0.51217881  0.21674314  0.64797712    -0.41200
N1820       N  0.39140011  0.13412199  0.75093869    -0.42600
H1821       H  0.40907634  0.17112976  0.68891154     0.13600
H1822       H  0.49423947  0.17963480  0.70953374     0.10000
H1823       H  0.44319749  0.11368786  0.72528749     0.11100
H1824       H  0.48751697  0.16219062  0.81329484     0.16900
C1825       C  0.46694614  0.12816047  0.50511806    -0.01300
C1826       C  0.46202862  0.14838136  0.49957546     0.07300
C1827       C  0.47231535  0.16175347  0.97510556    -0.07200
C1828       C  0.47638302  0.15019712  0.95113245     0.04800
C1829       C  0.48274522  0.13060343  0.95488472    -0.14500
C1830       C  0.48481658  0.12313467  0.98288508    -0.07800
C1831       C  0.45659823  0.16153661  0.52301733     0.05700
C1832       C  0.47624730  0.18589541  0.53193215    -0.08900
C1833       C  0.47247386  0.19841039  0.55513317     0.00700
C1834       C  0.44857452  0.18656148  0.56947795     0.00600
C1835       C  0.42875451  0.16240738  0.56018984    -0.12500
C1836       C  0.43257156  0.14986995  0.53702188     0.01000
C1837       C  0.49379314  0.22265766  0.56485616     0.40300
C1838       C  0.41174849  0.12501081  0.52808949     0.36900
C1839       C  0.46618355  0.11893769  0.53387720     0.36700
C1840       C  0.47350286  0.15864988  0.92311644     0.37400
N1841       N  0.51090977  0.24202322  0.57274240    -0.43400
N1842       N  0.39509667  0.10508310  0.52086592    -0.43800
N1843       N  0.47124008  0.16552250  0.90070193    -0.41200
N1844       N  0.46557926  0.11151964  0.55690586    -0.42600
H1845       H  0.49015017  0.10851780  0.98623289     0.13600
H1846       H  0.46739183  0.17671884  0.97218912     0.10000
H1847       H  0.49478843  0.19477509  0.52123873     0.11100
H1848       H  0.41047119  0.15316050  0.57142423     0.16900
loop_ 
_geom_bond_atom_site_label_1 
_geom_bond_atom_site_label_2 
_geom_bond_distance 
_geom_bond_site_symmetry_2 
_ccdc_geom_bond_type 
C1            C2   1.406       .  A
C1            C6   1.405       .  A
C1          C862   1.482       .  S
C2            C3   1.405       .  A
C2            H7   1.084       .  S
C3            C4   1.400       .  A
C3          C910   1.480       .  S
C4            C5   1.399       .  A
C4            H8   1.085       .  S
C5            C6   1.402       .  A
C5          C881   1.475       .  S
C6            H9   1.084       .  S
C10          C11   1.403       .  A
C10          C15   1.406       .  A
C10         C785   1.480       .  S
C11          C12   1.400       .  A
C11          H16   1.084       .  S
C12          C13   1.400       .  A
C12         C838   1.478       .  S
C13          C14   1.399       .  A
C13          H17   1.085       .  S
C14          C15   1.403       .  A
C14         C809   1.474       .  S
C15          H18   1.084       .  S
C19          C20   1.407       .  A
C19          C24   1.404       .  A
C19         C718   1.479       .  S
C20          C21   1.404       .  A
C20          H25   1.084       .  S
C21          C22   1.396       .  A
C21         C761   1.473       .  S
C22          C23   1.398       .  A
C22          H26   1.085       .  S
C23          C24   1.402       .  A
C23         C737   1.477       .  S
C24          H27   1.084       .  S
C28          C29   1.402       .  A
C28          C33   1.402       .  A
C28         C641   1.472       .  S
C29          C30   1.400       .  A
C29          H34   1.084       .  S
C30          C31   1.398       .  A
C30         C689   1.474       .  S
C31          C32   1.398       .  A
C31          H35   1.085       .  S
C32          C33   1.397       .  A
C32         C670   1.469       .  S
C33          H36   1.084       .  S
C37          C38   1.406       .  A
C37          C42   1.406       .  A
C37         C569   1.485       .  S
C38          C39   1.401       .  A
C38          H43   1.084       .  S
C39          C40   1.399       .  A
C39         C617   1.475       .  S
C40          C41   1.401       .  A
C40          H44   1.084       .  S
C41          C42   1.404       .  A
C41         C598   1.485       .  S
C42          H45   1.084       .  S
C46          C47   1.404       .  A
C46          C51   1.407       .  A
C46         C497   1.483       .  S
C47          C48   1.399       .  A
C47          H52   1.084       .  S
C48          C49   1.401       .  A
C48         C526   1.476       .  S
C49          C50   1.402       .  A
C49          H53   1.084       .  S
C50          C51   1.406       .  A
C50         C550   1.482       .  S
C51          H54   1.084       .  S
O55          C71   1.274       .  A
O55         Zn61   2.013       .  S
C56         C766   1.486       .  S
C56          O72   1.274       .  A
C56          O69   1.275   1_655  A
O57          C70   1.275       .  A
O57         Cd64   2.074   1_655  S
O58          C76   1.275       .  A
O58         Cd67   2.071       .  S
O59          C73   1.275       .  A
O59         Cd63   2.070       .  S
O60          C71   1.273   1_455  A
O60         Cd63   2.061       .  S
Zn61         O72   2.005       .  S
Zn61         O74   2.013       .  S
Zn61         O66   1.934   1_655  S
O62          C73   1.274       .  A
O62         Cd67   2.071       .  S
Cd63         O65   2.055       .  S
Cd63         O66   1.991       .  S
Cd64         O68   2.077       .  S
Cd64         O77   2.067       .  S
Cd64         O66   2.000       .  S
O65          C75   1.274       .  A
O66         Cd67   1.995       .  S
Cd67         O69   2.073       .  S
O68          C75   1.276       .  A
C70         C430   1.481       .  S
C70          O74   1.273       .  A
C71         C742   1.480       .  S
C73         C502   1.495       .  S
C75         C478   1.478       .  S
C76         C454   1.476       .  S
C76          O77   1.275       .  A
O78          C94   1.271       .  A
O78         Zn84   1.998       .  S
C79         C833   1.482       .  S
C79          O95   1.273       .  A
C79          O92   1.275       .  A
O80          C93   1.274       .  A
O80         Cd87   2.068       .  S
O81          C99   1.276       .  A
O81         Cd90   2.070       .  S
O82          C96   1.275       .  A
O82         Cd86   2.063       .  S
O83          C94   1.275       .  A
O83         Cd86   2.069       .  S
Zn84         O95   2.008       .  S
Zn84         O97   2.005       .  S
Zn84         O89   1.932       .  S
O85          C96   1.275       .  A
O85         Cd90   2.072       .  S
Cd86         O88   2.074       .  S
Cd86         O89   1.995       .  S
Cd87         O91   2.069       .  S
Cd87        O100   2.055       .  S
Cd87         O89   1.997       .  S
O88          C98   1.275       .  A
O89         Cd90   2.001       .  S
Cd90         O92   2.075       .  S
O91          C98   1.275       .  A
C93         C401   1.481       .  S
C93          O97   1.273       .  A
C94         C814   1.490       .  S
C96         C574   1.491       .  S
C98         C449   1.494       .  S
C99         C473   1.484       .  S
C99         O100   1.273       .  A
O101        C117   1.273       .  A
O101       Zn107   1.999       .  S
C102        C905   1.483       .  S
C102        O118   1.273       .  A
C102        O115   1.274       .  A
O103        C116   1.275       .  A
O103       Cd110   2.080       .  S
O104        C122   1.274       .  A
O104       Cd113   2.066       .  S
O105        C119   1.276       .  A
O105       Cd109   2.079       .  S
O106        C117   1.276       .  A
O106       Cd109   2.079       .  S
Zn107       O118   2.007       .  S
Zn107       O120   2.005       .  S
Zn107       O112   1.933       .  S
O108        C119   1.274       .  A
O108       Cd113   2.062       .  S
Cd109       O111   2.065       .  S
Cd109       O112   2.002       .  S
Cd110       O114   2.067       .  S
Cd110       O123   2.069       .  S
Cd110       O112   2.002       .  S
O111        C121   1.275       .  A
O112       Cd113   1.995       .  S
Cd113       O115   2.061       .  S
O114        C121   1.275       .  A
C116        C334   1.481       .  S
C116        O120   1.273       .  A
C117        C886   1.492       .  S
C119        C790   1.482       .  S
C121        C377   1.475       .  S
C122        C353   1.484       .  S
C122        O123   1.276       .  A
O124        C140   1.273       .  A
O124       Zn130   1.995       .  S
C125        C694   1.484       .  S
C125        O141   1.273       .  A
C125        O138   1.274       .  A
O126        C139   1.275       .  A
O126       Cd133   2.078       .  S
O127        C145   1.275       .  A
O127       Cd136   2.068       .  S
O128        C142   1.275       .  A
O128       Cd132   2.071   1_545  S
O129        C140   1.274       .  A
O129       Cd132   2.068       .  S
Zn130       O141   2.002       .  S
Zn130       O143   2.010       .  S
Zn130       O135   1.935       .  S
O131        C142   1.275       .  A
O131       Cd136   2.073   1_545  S
Cd132       O134   2.076       .  S
Cd132       O135   1.997       .  S
Cd133       O137   2.073       .  S
Cd133       O146   2.066       .  S
Cd133       O135   1.998       .  S
O134        C144   1.276       .  A
O135       Cd136   1.999       .  S
Cd136       O138   2.065       .  S
O137        C144   1.276       .  A
C139        C305   1.482       .  S
C139        O143   1.273       .  A
C140        C665   1.484       .  S
C142        C713   1.487       .  S
C144        C358   1.487   1_565  S
C145        C382   1.490   1_565  S
C145        O146   1.275       .  A
C147        C281   1.479       .  S
C147        N148   1.358       .  A
C147        N152   1.357       .  A
N148        C149   1.359       .  A
C149        C329   1.485       .  S
C149        N150   1.359       .  A
N150        C151   1.360       .  A
C151        C425   1.494       .  S
C151        N152   1.357       .  A
C153        C257   1.488       .  S
C153        N154   1.360       .  A
C153        N158   1.359       .  A
N154        C155   1.362       .  A
C155        C310   1.493       .  S
C155        N156   1.358       .  A
N156        C157   1.357       .  A
C157        C406   1.481       .  S
C157        N158   1.356       .  A
O159        C175   1.274       .  A
O159       Zn165   2.005       .  S
C160        C545   1.498       .  S
C160        O176   1.274       .  A
C160        O173   1.277       .  A
O161        C174   1.273       .  A
O161       Cd168   2.062       .  S
O162        C180   1.276       .  A
O162       Cd171   2.071       .  S
O163        C177   1.275       .  A
O163       Cd167   2.071       .  S
O164        C175   1.273       .  A
O164       Cd167   2.060       .  S
Zn165       O176   2.013       .  S
Zn165       O178   2.017       .  S
Zn165       O170   1.939       .  S
O166        C177   1.276       .  A
O166       Cd171   2.078       .  S
Cd167       O169   2.073       .  S
Cd167       O170   1.997       .  S
Cd168       O172   2.066       .  S
Cd168       O181   2.063       .  S
Cd168       O170   2.000       .  S
O169        C179   1.275       .  A
O170       Cd171   1.998       .  S
Cd171       O173   2.089       .  S
O172        C179   1.273       .  A
C174        C262   1.477       .  S
C174        O178   1.273       .  A
C175        C521   1.485       .  S
C177        C857   1.485       .  S
C179        C233   1.481       .  S
C180        C214   1.483       .  S
C180        O181   1.275       .  A
O182        C198   1.275       .  A
O182       Zn188   2.023       .  S
C183        C622   1.482       .  S
C183        O199   1.275       .  A
C183        O196   1.274       .  A
O184        C197   1.277       .  A
O184       Cd191   2.084       .  S
O185        C203   1.274       .  A
O185       Cd194   2.067       .  S
O186        C200   1.271       .  A
O186       Cd190   2.048       .  S
O187        C198   1.272       .  A
O187       Cd190   2.054       .  S
Zn188       O199   2.012       .  S
Zn188       O201   2.001       .  S
Zn188       O193   1.937       .  S
O189        C200   1.274       .  A
O189       Cd194   2.063       .  S
Cd190       O192   2.049       .  S
Cd190       O193   1.985       .  S
Cd191       O195   2.075       .  S
Cd191       O204   2.087       .  S
Cd191       O193   2.001       .  S
O192        C202   1.272       .  A
O193       Cd194   1.991       .  S
Cd194       O196   2.061       .  S
O195        C202   1.276       .  A
C197        C286   1.494       .  S
C197        O201   1.274       .  A
C198        C593   1.485       .  S
C200        C646   1.482       .  S
C202        C209   1.483       .  S
C203        C238   1.494       .  S
C203        O204   1.278       .  A
C205        C206   1.410       .  A
C205        C210   1.398       .  A
C205        C219   1.444       .  S
C206        C207   1.401       .  A
C206        C211   1.482       .  S
C207        C208   1.399       .  A
C207        H226   1.085       .  S
C208        C209   1.418       .  A
C208        C220   1.445       .  S
C209        C210   1.405       .  A
C210        H225   1.085       .  S
C211        C212   1.402       .  A
C211        C216   1.409       .  A
C212        C213   1.398       .  A
C212        H227   1.085       .  S
C213        C214   1.414       .  A
C213        C217   1.444       .  S
C214        C215   1.408       .  A
C215        C216   1.400       .  A
C215        H228   1.085       .  S
C216        C218   1.445       .  S
C217        N221   1.157       .  T
C218        N222   1.157       .  T
C219        N224   1.157       .  T
C220        N223   1.158       .  T
C229        C230   1.410   1_554  A
C229        C234   1.402       .  A
C229        C243   1.444   1_554  S
C230        C231   1.402   1_556  A
C230       C1159   1.485       .  S
C231        C232   1.399       .  A
C231        H250   1.085       .  S
C232        C233   1.413       .  A
C232        C244   1.444       .  S
C233        C234   1.406       .  A
C234        H249   1.085       .  S
C235        C236   1.400       .  A
C235        C240   1.409       .  A
C235       C1154   1.487       .  S
C236        C237   1.401       .  A
C236       H1175   1.085       .  S
C237        C238   1.420       .  A
C237        C241   1.443       .  S
C238        C239   1.409       .  A
C239        C240   1.402       .  A
C239        H252   1.084       .  S
C240        C242   1.444       .  S
C241        N245   1.157       .  T
C242        N246   1.157       .  T
C243        N248   1.157       .  T
C244        N247   1.157       .  T
H251       C1160   1.085   1_554  S
C253        C254   1.407       .  A
C253        C258   1.397       .  A
C253        C267   1.445       .  S
C254        C255   1.399       .  A
C254        C259   1.479       .  S
C255        C256   1.401       .  A
C255        H274   1.085       .  S
C256        C257   1.417       .  A
C256        C268   1.443       .  S
C257        C258   1.408       .  A
C258        H273   1.082       .  S
C259        C260   1.401       .  A
C259        C264   1.409       .  A
C260        C261   1.400       .  A
C260        H275   1.085       .  S
C261        C262   1.414       .  A
C261        C265   1.445       .  S
C262        C263   1.404       .  A
C263        C264   1.399       .  A
C263        H276   1.085       .  S
C264        C266   1.444       .  S
C265        N269   1.157       .  T
C266        N270   1.157       .  T
C267        N272   1.157       .  T
C268        N271   1.157       .  T
C277        C278   1.411       .  A
C277        C282   1.402       .  A
C277        C291   1.444       .  S
C278        C279   1.404       .  A
C278        C283   1.486       .  S
C279        C280   1.400       .  A
C279        H298   1.085       .  S
C280        C281   1.413       .  A
C280        C292   1.444       .  S
C281        C282   1.405       .  A
C282        H297   1.085       .  S
C283        C284   1.403       .  A
C283        C288   1.408       .  A
C284        C285   1.402       .  A
C284        H299   1.085       .  S
C285        C286   1.418       .  A
C285        C289   1.443       .  S
C286        C287   1.411       .  A
C287        C288   1.399       .  A
C287        H300   1.084       .  S
C288        C290   1.445       .  S
C289        N293   1.157       .  T
C290        N294   1.157       .  T
C291        N296   1.157       .  T
C292        N295   1.157       .  T
C301        C302   1.412       .  A
C301        C306   1.401       .  A
C301        C315   1.444       .  S
C302        C303   1.403       .  A
C302        C307   1.489       .  S
C303        C304   1.400       .  A
C303        H322   1.085       .  S
C304        C305   1.414       .  A
C304        C316   1.445       .  S
C305        C306   1.405       .  A
C306        H321   1.085       .  S
C307        C308   1.402       .  A
C307        C312   1.411       .  A
C308        C309   1.401       .  A
C308        H323   1.085       .  S
C309        C310   1.420       .  A
C309        C313   1.444       .  S
C310        C311   1.407       .  A
C311        C312   1.400       .  A
C311        H324   1.082       .  S
C312        C314   1.445       .  S
C313        N317   1.157       .  T
C314        N318   1.157       .  T
C315        N320   1.157       .  T
C316        N319   1.157       .  T
C325        C326   1.409       .  A
C325        C330   1.402       .  A
C325        C339   1.444       .  S
C326        C327   1.402       .  A
C326        C331   1.485       .  S
C327        C328   1.400       .  A
C327        H346   1.085       .  S
C328        C329   1.415       .  A
C328        C340   1.444       .  S
C329        C330   1.407       .  A
C330        H345   1.085       .  S
C331        C332   1.404       .  A
C331        C336   1.409       .  A
C332        C333   1.403       .  A
C332        H347   1.085       .  S
C333        C334   1.413       .  A
C333        C337   1.444       .  S
C334        C335   1.405       .  A
C335        C336   1.398       .  A
C335        H348   1.085       .  S
C336        C338   1.444       .  S
C337        N341   1.157       .  T
C338        N342   1.157       .  T
C339        N344   1.157       .  T
C340        N343   1.157       .  T
C349        C350   1.409       .  A
C349        C354   1.398       .  A
C349        C363   1.444       .  S
C350        C351   1.402       .  A
C350       C1279   1.482       .  S
C351        C352   1.401       .  A
C351       H1294   1.085       .  S
C352        C353   1.417       .  A
C352        C364   1.444       .  S
C353        C354   1.406       .  A
C354        H369   1.085       .  S
C355        C356   1.402       .  A
C355        C360   1.409   1_545  A
C355       C1274   1.485   1_554  S
C356        C357   1.402       .  A
C356        H371   1.085       .  S
C357        C358   1.417       .  A
C357        C361   1.444       .  S
C358        C359   1.407   1_545  A
C359        C360   1.400       .  A
C359        H372   1.085       .  S
C360        C362   1.444       .  S
C361        N365   1.157       .  T
C362        N366   1.157       .  T
C363        N368   1.157       .  T
C364       N1291   1.157       .  T
N367       C1288   1.157       .  T
H370       C1275   1.085   1_554  S
C373        C374   1.410       .  A
C373        C378   1.398       .  A
C373        C387   1.444       .  S
C374        C375   1.403       .  A
C374        C379   1.482       .  S
C375        C376   1.400       .  A
C375        H394   1.085   1_545  S
C376        C377   1.413       .  A
C376        C388   1.445       .  S
C377        C378   1.403       .  A
C378        H393   1.085       .  S
C379        C380   1.401       .  A
C379        C384   1.407       .  A
C380        C381   1.400       .  A
C380        H395   1.085       .  S
C381        C382   1.419       .  A
C381        C385   1.444       .  S
C382        C383   1.409       .  A
C383        C384   1.399       .  A
C383        H396   1.084   1_545  S
C384        C386   1.444       .  S
C385        N389   1.157       .  T
C386        N390   1.157       .  T
C387        N392   1.157       .  T
C388        N391   1.157   1_545  T
C397        C398   1.410       .  A
C397        C402   1.401       .  A
C397        C411   1.444       .  S
C398        C399   1.400       .  A
C398        C403   1.481       .  S
C399        C400   1.397       .  A
C399        H418   1.085       .  S
C400        C401   1.415       .  A
C400        C412   1.444       .  S
C401        C402   1.406       .  A
C402        H417   1.085       .  S
C403        C404   1.401       .  A
C403        C408   1.410       .  A
C404        C405   1.400       .  A
C404        H419   1.085       .  S
C405        C406   1.416       .  A
C405        C409   1.444       .  S
C406        C407   1.405       .  A
C407        C408   1.399       .  A
C407        H420   1.085       .  S
C408        C410   1.444       .  S
C409        N413   1.157       .  T
C410        N414   1.157       .  T
C411        N416   1.157       .  T
C412        N415   1.157       .  T
C421        C422   1.409       .  A
C421        C426   1.400       .  A
C421        C435   1.444       .  S
C422        C423   1.401       .  A
C422        C427   1.487       .  S
C423        C424   1.400       .  A
C423        H442   1.085       .  S
C424        C425   1.421       .  A
C424        C436   1.444       .  S
C425        C426   1.409       .  A
C426        H441   1.084       .  S
C427        C428   1.403       .  A
C427        C432   1.411       .  A
C428        C429   1.399       .  A
C428        H443   1.085       .  S
C429        C430   1.413       .  A
C429        C433   1.444       .  S
C430        C431   1.405       .  A
C431        C432   1.402       .  A
C431        H444   1.085       .  S
C432        C434   1.444       .  S
C433        N437   1.157       .  T
C434        N438   1.157       .  T
C435        N440   1.157       .  T
C436        N439   1.158       .  T
C445        C446   1.408       .  A
C445        C450   1.400       .  A
C445        C459   1.444       .  S
C446        C447   1.401       .  A
C446       C1375   1.484   1_554  S
C447        C448   1.402       .  A
C447       H1390   1.085   1_554  S
C448        C449   1.420       .  A
C448        C460   1.444       .  S
C449        C450   1.410       .  A
C450        H465   1.084       .  S
C451        C452   1.402       .  A
C451        C456   1.410       .  A
C451       C1370   1.482       .  S
C452        C453   1.400       .  A
C452       H1391   1.085       .  S
C453        C454   1.412       .  A
C453        C457   1.444       .  S
C454        C455   1.404       .  A
C455        C456   1.400       .  A
C455        H468   1.085       .  S
C456        C458   1.444       .  S
C457        N461   1.157   1_455  T
C458        N462   1.157       .  T
C459        N464   1.157       .  T
C460        N463   1.157       .  T
H466       C1371   1.085       .  S
H467       C1376   1.085       .  S
C469        C470   1.409       .  A
C469        C474   1.399       .  A
C469        C483   1.444       .  S
C470        C471   1.400       .  A
C470        C475   1.481       .  S
C471        C472   1.397       .  A
C471        H490   1.085       .  S
C472        C473   1.418       .  A
C472        C484   1.445       .  S
C473        C474   1.407       .  A
C474        H489   1.085       .  S
C475        C476   1.403       .  A
C475        C480   1.409       .  A
C476        C477   1.400       .  A
C476        H491   1.085       .  S
C477        C478   1.413       .  A
C477        C481   1.444       .  S
C478        C479   1.405       .  A
C479        C480   1.397       .  A
C479        H492   1.085       .  S
C480        C482   1.445       .  S
C481        N485   1.157   1_455  T
C482        N486   1.157       .  T
C483        N488   1.157       .  T
C484        N487   1.158       .  T
C493        C494   1.413       .  A
C493        C498   1.402       .  A
C493        C507   1.444       .  S
C494        C495   1.403       .  A
C494        C499   1.488       .  S
C495        C496   1.400       .  A
C495        H514   1.085       .  S
C496        C497   1.413       .  A
C496        C508   1.445       .  S
C497        C498   1.403       .  A
C498        H513   1.085       .  S
C499        C500   1.401       .  A
C499        C504   1.410       .  A
C500        C501   1.402       .  A
C500        H515   1.085       .  S
C501        C502   1.420       .  A
C501        C505   1.444       .  S
C502        C503   1.410       .  A
C503        C504   1.401       .  A
C503        H516   1.084       .  S
C504        C506   1.444       .  S
C505        N509   1.157       .  T
C506        N510   1.157       .  T
C507        N512   1.157       .  T
C508        N511   1.157       .  T
C517        C522   1.398       .  A
C517       C1442   1.406   1_554  A
C517        C531   1.444       .  S
C518        C519   1.399       .  A
C518       C1441   1.406       .  A
C518        C523   1.478       .  S
C519       C1444   1.400       .  A
C519        H538   1.085       .  S
C520        C521   1.418       .  A
C520       C1443   1.397   1_554  A
C520        C532   1.445       .  S
C521        C522   1.409       .  A
C522        H537   1.084       .  S
C523        C524   1.400       .  A
C523        C528   1.409       .  A
C524        C525   1.397       .  A
C524        H539   1.085       .  S
C525        C526   1.411       .  A
C525        C529   1.444       .  S
C526        C527   1.403       .  A
C527        C528   1.402       .  A
C527        H540   1.084       .  S
C528        C530   1.443       .  S
C529        N533   1.157       .  T
C530        N534   1.157       .  T
C531        N536   1.157       .  T
C532        N535   1.157   1_554  T
C541        C542   1.409       .  A
C541        C546   1.401       .  A
C541        C555   1.444       .  S
C542        C543   1.404       .  A
C542        C547   1.492       .  S
C543        C544   1.404       .  A
C543        H562   1.085       .  S
C544        C545   1.419       .  A
C544        C556   1.444       .  S
C545        C546   1.411       .  A
C546        H561   1.084       .  S
C547        C548   1.405       .  A
C547        C552   1.415       .  A
C548        C549   1.403       .  A
C548        H563   1.085       .  S
C549        C550   1.411       .  A
C549        C553   1.444       .  S
C550        C551   1.402       .  A
C551        C552   1.401       .  A
C551        H564   1.085       .  S
C552        C554   1.444       .  S
C553        N557   1.157       .  T
C554        N558   1.157       .  T
C555        N560   1.157       .  T
C556        N559   1.157       .  T
C565        C566   1.410       .  A
C565        C570   1.399       .  A
C565        C579   1.444       .  S
C566        C567   1.403       .  A
C566        C571   1.484       .  S
C567        C568   1.400       .  A
C567        H586   1.085       .  S
C568        C569   1.414       .  A
C568        C580   1.444       .  S
C569        C570   1.405       .  A
C570        H585   1.085       .  S
C571        C572   1.402   1_655  A
C571        C576   1.408   1_655  A
C572        C573   1.401       .  A
C572        H587   1.085   1_455  S
C573        C574   1.419       .  A
C573        C577   1.444       .  S
C574        C575   1.409       .  A
C575        C576   1.398       .  A
C575        H588   1.084       .  S
C576        C578   1.444       .  S
C577        N581   1.157       .  T
C578        N582   1.157       .  T
C579        N584   1.157   1_655  T
C580        N583   1.157       .  T
C589        C590   1.411       .  A
C589        C594   1.401       .  A
C589        C603   1.444       .  S
C590        C591   1.402       .  A
C590        C595   1.485       .  S
C591        C592   1.398       .  A
C591        H610   1.085       .  S
C592        C593   1.417       .  A
C592        C604   1.445       .  S
C593        C594   1.406       .  A
C594        H609   1.085       .  S
C595        C596   1.403       .  A
C595        C600   1.411       .  A
C596        C597   1.399       .  A
C596        H611   1.085       .  S
C597        C598   1.414       .  A
C597        C601   1.444       .  S
C598        C599   1.405       .  A
C599        C600   1.399       .  A
C599        H612   1.085       .  S
C600        C602   1.444       .  S
C601        N605   1.157       .  T
C602        N606   1.157       .  T
C603        N608   1.157       .  T
C604        N607   1.157       .  T
C613        C614   1.414       .  A
C613        C618   1.399       .  A
C613        C627   1.444       .  S
C614        C615   1.404       .  A
C614        C619   1.485   1_554  S
C615        C616   1.401       .  A
C615        H634   1.085       .  S
C616        C617   1.410       .  A
C616        C628   1.444       .  S
C617        C618   1.400       .  A
C618        H633   1.085       .  S
C619        C620   1.402       .  A
C619       C1548   1.408       .  A
C620       C1545   1.401       .  A
C620        H635   1.085   1_556  S
C621        C622   1.417       .  A
C621       C1544   1.397       .  A
C621        C625   1.443       .  S
C622        C623   1.408       .  A
C623        C624   1.399       .  A
C623        H636   1.084       .  S
C624       C1543   1.406       .  A
C624        C626   1.444       .  S
C625        N629   1.157       .  T
C626        N630   1.157       .  T
C627        N632   1.157   1_554  T
C628        N631   1.157       .  T
C637        C638   1.407       .  A
C637        C642   1.396       .  A
C637        C651   1.444       .  S
C638        C639   1.400       .  A
C638        C643   1.471       .  S
C639        C640   1.397       .  A
C639        H658   1.085       .  S
C640        C641   1.411       .  A
C640        C652   1.444       .  S
C641        C642   1.403       .  A
C642        H657   1.085       .  S
C643        C644   1.398       .  A
C643        C648   1.405       .  A
C644        C645   1.397       .  A
C644        H659   1.085       .  S
C645        C646   1.419       .  A
C645        C649   1.445       .  S
C646        C647   1.408       .  A
C647        C648   1.396       .  A
C647        H660   1.084       .  S
C648        C650   1.444       .  S
C649        N653   1.158       .  T
C650        N654   1.157       .  T
C651        N656   1.157       .  T
C652        N655   1.157       .  T
C661        C666   1.397       .  A
C661       C1586   1.407       .  A
C661       C1599   1.444       .  S
C662       C1585   1.406       .  A
C662       C1587   1.400       .  A
C662        C667   1.472       .  S
C663        C664   1.398   1_556  A
C663       C1586   1.402   1_556  A
C663        H682   1.085       .  S
C664        C665   1.416       .  A
C664        C676   1.444       .  S
C665        C666   1.409       .  A
C666        H681   1.085       .  S
C667        C668   1.400       .  A
C667        C672   1.409       .  A
C668        C669   1.392       .  A
C668        H683   1.085       .  S
C669        C670   1.409       .  A
C669        C673   1.445       .  S
C670        C671   1.403       .  A
C671        C672   1.399       .  A
C671        H684   1.085       .  S
C672       C1598   1.443       .  S
C673        N677   1.157       .  T
C674       C1596   1.444       .  S
C674        N678   1.157       .  T
C675       C1585   1.444       .  S
C675        N680   1.157       .  T
C676        N679   1.157   1_554  T
C685        C686   1.408       .  A
C685        C690   1.395       .  A
C685        C699   1.444       .  S
C686        C687   1.401       .  A
C686        C691   1.473       .  S
C687        C688   1.400       .  A
C687        H706   1.085       .  S
C688        C689   1.412       .  A
C688        C700   1.444       .  S
C689        C690   1.403       .  A
C690        H705   1.085       .  S
C691        C692   1.399       .  A
C691        C696   1.405       .  A
C692        C693   1.399       .  A
C692        H707   1.085       .  S
C693        C694   1.417       .  A
C693        C697   1.444       .  S
C694        C695   1.409       .  A
C695        C696   1.397       .  A
C695        H708   1.084       .  S
C696        C698   1.444       .  S
C697        N701   1.157       .  T
C698        N702   1.157       .  T
C699        N704   1.157       .  T
C700        N703   1.157       .  T
C709        C710   1.408       .  A
C709        C714   1.401       .  A
C709        C723   1.444       .  S
C710        C711   1.400       .  A
C710        C715   1.482       .  S
C711        C712   1.401       .  A
C711        H730   1.085       .  S
C712        C713   1.417       .  A
C712        C724   1.444       .  S
C713        C714   1.407       .  A
C714        H729   1.084       .  S
C715        C716   1.402       .  A
C715        C720   1.410       .  A
C716        C717   1.401       .  A
C716        H731   1.085       .  S
C717        C718   1.411       .  A
C717        C721   1.444       .  S
C718        C719   1.403       .  A
C719        C720   1.401       .  A
C719        H732   1.085       .  S
C720        C722   1.444       .  S
C721        N725   1.157       .  T
C722        N726   1.157       .  T
C723        N728   1.157       .  T
C724        N727   1.157       .  T
C733        C734   1.408       .  A
C733        C738   1.398       .  A
C733        C747   1.444       .  S
C734        C735   1.402       .  A
C734        C739   1.477       .  S
C735        C736   1.398       .  A
C735        H754   1.085       .  S
C736        C737   1.411       .  A
C736        C748   1.444       .  S
C737        C738   1.405       .  A
C738        H753   1.085       .  S
C739        C740   1.401       .  A
C739        C744   1.407       .  A
C740        C741   1.399       .  A
C740        H755   1.085       .  S
C741        C742   1.416       .  A
C741        C745   1.445       .  S
C742        C743   1.406       .  A
C743        C744   1.398       .  A
C743        H756   1.085       .  S
C744        C746   1.444       .  S
C745        N749   1.157   1_655  T
C746        N750   1.157       .  T
C747        N752   1.157   1_655  T
C748        N751   1.157       .  T
C757        C758   1.409       .  A
C757        C762   1.398       .  A
C757        C771   1.444       .  S
C758        C759   1.402       .  A
C758        C763   1.477       .  S
C759        C760   1.401       .  A
C759        H778   1.085       .  S
C760        C761   1.410       .  A
C760        C772   1.443       .  S
C761        C762   1.402       .  A
C762        H777   1.085       .  S
C763        C764   1.400       .  A
C763       C1692   1.404   1_554  A
C764       C1689   1.402   1_554  A
C764        H779   1.085       .  S
C765        C766   1.417       .  A
C765       C1688   1.402       .  A
C765        C769   1.444   1_655  S
C766        C767   1.408       .  A
C767        C768   1.397       .  A
C767        H780   1.085       .  S
C768       C1687   1.406       .  A
C768        C770   1.444       .  S
C769        N773   1.157       .  T
C770        N774   1.157       .  T
C771        N776   1.157       .  T
C772        N775   1.157       .  T
C781        C782   1.408       .  A
C781        C786   1.399       .  A
C781        C795   1.444       .  S
C782        C783   1.402       .  A
C782        C787   1.480       .  S
C783        C784   1.402       .  A
C783        H802   1.085       .  S
C784        C785   1.413       .  A
C784        C796   1.444       .  S
C785        C786   1.404       .  A
C786        H801   1.085       .  S
C787        C788   1.399       .  A
C787        C792   1.409       .  A
C788        C789   1.399       .  A
C788        H803   1.085       .  S
C789        C790   1.415   1_565  A
C789        C793   1.444   1_565  S
C790        C791   1.406   1_545  A
C791        C792   1.402       .  A
C791        H804   1.085       .  S
C792        C794   1.444       .  S
C793        N797   1.157       .  T
C794        N798   1.157       .  T
C795        N800   1.157       .  T
C796        N799   1.157       .  T
C805        C806   1.409       .  A
C805        C810   1.397       .  A
C805        C819   1.444       .  S
C806        C807   1.403       .  A
C806        C811   1.478       .  S
C807        C808   1.403       .  A
C807        H826   1.084       .  S
C808        C809   1.410       .  A
C808        C820   1.443       .  S
C809        C810   1.401       .  A
C810        H825   1.085       .  S
C811        C816   1.407       .  A
C811       C1736   1.398       .  A
C812        C813   1.400       .  A
C812       C1735   1.398       .  A
C812        H827   1.085       .  S
C813        C814   1.422       .  A
C813        C817   1.444       .  S
C814        C815   1.408       .  A
C815       C1740   1.397       .  A
C815        H828   1.084       .  S
C816       C1739   1.398       .  A
C816        C818   1.444       .  S
C817        N821   1.157       .  T
C818        N822   1.157       .  T
C819        N824   1.157       .  T
C820        N823   1.157       .  T
C829        C830   1.410       .  A
C829        C834   1.399       .  A
C829        C843   1.445       .  S
C830        C831   1.400       .  A
C830        C835   1.479       .  S
C831        C832   1.400       .  A
C831        H850   1.085       .  S
C832        C833   1.416       .  A
C832        C844   1.444       .  S
C833        C834   1.405       .  A
C834        H849   1.085       .  S
C835        C836   1.402       .  A
C835        C840   1.409       .  A
C836        C837   1.399       .  A
C836        H851   1.085       .  S
C837        C838   1.412       .  A
C837        C841   1.444       .  S
C838        C839   1.404       .  A
C839        C840   1.398       .  A
C839        H852   1.085       .  S
C840        C842   1.443       .  S
C841        N845   1.157       .  T
C842        N846   1.157       .  T
C843        N848   1.157       .  T
C844        N847   1.157       .  T
C853        C854   1.410       .  A
C853        C858   1.402       .  A
C853        C867   1.444       .  S
C854        C855   1.402       .  A
C854        C859   1.485       .  S
C855        C856   1.401       .  A
C855        H874   1.085       .  S
C856        C857   1.415       .  A
C856        C868   1.444       .  S
C857        C858   1.407       .  A
C858        H873   1.085       .  S
C859        C860   1.402       .  A
C859        C864   1.411       .  A
C860        C861   1.400       .  A
C860        H875   1.085       .  S
C861        C862   1.411       .  A
C861        C865   1.442       .  S
C862        C863   1.404       .  A
C863        C864   1.402       .  A
C863        H876   1.085       .  S
C864        C866   1.444       .  S
C865        N869   1.157       .  T
C866        N870   1.157       .  T
C867        N872   1.157       .  T
C868        N871   1.157       .  T
C877        C878   1.412       .  A
C877        C882   1.401       .  A
C877        C891   1.444       .  S
C878        C879   1.404       .  A
C878        C883   1.485       .  S
C879        C880   1.400       .  A
C879        H898   1.085       .  S
C880        C881   1.409       .  A
C880        C892   1.444       .  S
C881        C882   1.402       .  A
C882        H897   1.085       .  S
C883        C884   1.402       .  A
C883        C888   1.408       .  A
C884        C885   1.400       .  A
C884        H899   1.085       .  S
C885        C886   1.418       .  A
C885        C889   1.444       .  S
C886        C887   1.411       .  A
C887        C888   1.400       .  A
C887        H900   1.084       .  S
C888        C890   1.444       .  S
C889        N893   1.157       .  T
C890        N894   1.157       .  T
C891        N896   1.157       .  T
C892        N895   1.157       .  T
C901        C902   1.408       .  A
C901       C1830   1.398   1_554  A
C901        C915   1.444       .  S
C902       C1827   1.401   1_554  A
C902        C907   1.479       .  S
C903        C904   1.399       .  A
C903       C1826   1.399       .  A
C903        H922   1.085       .  S
C904        C905   1.417       .  A
C904        C916   1.445       .  S
C905        C906   1.407       .  A
C906       C1825   1.398       .  A
C906        H921   1.085       .  S
C907        C908   1.401       .  A
C907        C912   1.409       .  A
C908        C909   1.399       .  A
C908        H923   1.085       .  S
C909        C910   1.412       .  A
C909        C913   1.442       .  S
C910        C911   1.404       .  A
C911        C912   1.399       .  A
C911        H924   1.085       .  S
C912        C914   1.444       .  S
C913        N917   1.157       .  T
C914        N918   1.157       .  T
C915        N920   1.157       .  T
C916        N919   1.157       .  T
C925        C926   1.406       .  A
C925        C930   1.409       .  A
C925       C1786   1.485       .  S
C926        C927   1.402       .  A
C926        H931   1.084       .  S
C927        C928   1.397       .  A
C927       C1834   1.474       .  S
C928        C929   1.398       .  A
C928        H932   1.085       .  S
C929        C930   1.403       .  A
C929       C1805   1.477       .  S
C930        H933   1.084       .  S
C934        C935   1.408       .  A
C934        C939   1.406       .  A
C934       C1709   1.487       .  S
C935        C936   1.403       .  A
C935        H940   1.084       .  S
C936        C937   1.399       .  A
C936       C1762   1.480       .  S
C937        C938   1.399       .  A
C937        H941   1.085       .  S
C938        C939   1.402       .  A
C938       C1733   1.478       .  S
C939        H942   1.083       .  S
C943        C944   1.408       .  A
C943        C948   1.406       .  A
C943       C1642   1.485       .  S
C944        C945   1.403       .  A
C944        H949   1.084       .  S
C945        C946   1.398       .  A
C945       C1685   1.479       .  S
C946        C947   1.399       .  A
C946        H950   1.085       .  S
C947        C948   1.402       .  A
C947       C1661   1.481       .  S
C948        H951   1.083       .  S
C952        C953   1.400       .  A
C952        C957   1.402       .  A
C952       C1565   1.474       .  S
C953        C954   1.400       .  A
C953        H958   1.084       .  S
C954        C955   1.401       .  A
C954       C1613   1.477       .  S
C955        C956   1.400       .  A
C955        H959   1.084       .  S
C956        C957   1.399       .  A
C956       C1594   1.473       .  S
C957        H960   1.084       .  S
C961        C962   1.402       .  A
C961        C966   1.402       .  A
C961       C1493   1.474       .  S
C962        C963   1.401       .  A
C962        H967   1.084       .  S
C963        C964   1.400       .  A
C963       C1541   1.475       .  S
C964        C965   1.399       .  A
C964        H968   1.084       .  S
C965        C966   1.402       .  A
C965       C1522   1.479       .  S
C966        H969   1.084       .  S
C970        C971   1.402       .  A
C970        C975   1.404       .  A
C970       C1421   1.473       .  S
C971        C972   1.396       .  A
C971        H976   1.084       .  S
C972        C973   1.398       .  A
C972       C1450   1.471       .  S
C973        C974   1.403       .  A
C973        H977   1.084       .  S
C974        C975   1.405       .  A
C974       C1474   1.485       .  S
C975        H978   1.084       .  S
O979        C995   1.275       .  A
O979       Zn985   2.022       .  S
C980       C1690   1.491       .  S
C980        O996   1.275       .  A
C980        O993   1.274   1_655  A
O981        C994   1.275       .  A
O981       Cd988   2.070   1_655  S
O982       C1000   1.275       .  A
O982       Cd991   2.076       .  S
O983        C997   1.274       .  A
O983       Cd987   2.064       .  S
O984        C995   1.273   1_455  A
O984       Cd987   2.055       .  S
Zn985       O996   2.006       .  S
Zn985       O998   2.015       .  S
Zn985       O990   1.933   1_655  S
O986        C997   1.274       .  A
O986       Cd991   2.066       .  S
Cd987       O989   2.052       .  S
Cd987       O990   1.986       .  S
Cd988       O992   2.067       .  S
Cd988      O1001   2.066       .  S
Cd988       O990   1.994       .  S
O989        C999   1.274       .  A
O990       Cd991   1.992       .  S
Cd991       O993   2.067       .  S
O992        C999   1.275       .  A
C994       C1354   1.483       .  S
C994        O998   1.273       .  A
C995       C1666   1.480       .  S
C997       C1426   1.492       .  S
C999       C1402   1.474       .  S
C1000      C1378   1.478       .  S
C1000      O1001   1.274       .  A
O1002      C1018   1.272       .  A
O1002     Zn1008   2.002       .  S
C1003      C1757   1.478       .  S
C1003      O1019   1.273       .  A
C1003      O1016   1.274       .  A
O1004      C1017   1.274       .  A
O1004     Cd1011   2.063       .  S
O1005      C1023   1.274       .  A
O1005     Cd1014   2.062       .  S
O1006      C1020   1.276       .  A
O1006     Cd1010   2.067       .  S
O1007      C1018   1.276       .  A
O1007     Cd1010   2.070       .  S
Zn1008     O1019   2.013       .  S
Zn1008     O1021   2.014       .  S
Zn1008     O1013   1.933       .  S
O1009      C1020   1.274       .  A
O1009     Cd1014   2.067       .  S
Cd1010     O1012   2.074       .  S
Cd1010     O1013   1.996       .  S
Cd1011     O1015   2.065       .  S
Cd1011     O1024   2.052       .  S
Cd1011     O1013   1.995       .  S
O1012      C1022   1.275       .  A
O1013     Cd1014   1.998       .  S
Cd1014     O1016   2.072       .  S
O1015      C1022   1.274       .  A
C1017      C1325   1.487       .  S
C1017      O1021   1.274       .  A
C1018      C1738   1.490       .  S
C1020      C1498   1.493       .  S
C1022      C1373   1.491       .  S
C1023      C1397   1.479       .  S
C1023      O1024   1.273       .  A
O1025      C1041   1.275       .  A
O1025     Zn1031   2.018       .  S
C1026      C1829   1.484       .  S
C1026      O1042   1.274       .  A
C1026      O1039   1.274       .  A
O1027      C1040   1.276       .  A
O1027     Cd1034   2.080       .  S
O1028      C1046   1.275       .  A
O1028     Cd1037   2.071       .  S
O1029      C1043   1.276       .  A
O1029     Cd1033   2.073       .  S
O1030      C1041   1.275       .  A
O1030     Cd1033   2.078       .  S
Zn1031     O1042   2.015       .  S
Zn1031     O1044   2.017       .  S
Zn1031     O1036   1.940       .  S
O1032      C1043   1.275       .  A
O1032     Cd1037   2.074       .  S
Cd1033     O1035   2.067       .  S
Cd1033     O1036   1.999       .  S
Cd1034     O1038   2.063       .  S
Cd1034     O1047   2.073       .  S
Cd1034     O1036   2.000       .  S
O1035      C1045   1.275       .  A
O1036     Cd1037   1.996       .  S
Cd1037     O1039   2.058       .  S
O1038      C1045   1.276       .  A
C1040      C1258   1.483       .  S
C1040      O1044   1.274       .  A
C1041      C1810   1.497       .  S
C1043      C1714   1.490       .  S
C1045      C1301   1.477       .  S
C1046      C1277   1.485       .  S
C1046      O1047   1.275       .  A
O1048      C1064   1.272       .  A
O1048     Zn1054   1.987       .  S
C1049      C1618   1.482       .  S
C1049      O1065   1.272       .  A
C1049      O1062   1.273       .  A
O1050      C1063   1.273       .  A
O1050     Cd1057   2.065       .  S
O1051      C1069   1.275       .  A
O1051     Cd1060   2.072       .  S
O1052      C1066   1.273       .  A
O1052     Cd1056   2.061   1_545  S
O1053      C1064   1.273       .  A
O1053     Cd1056   2.059       .  S
Zn1054     O1065   2.000       .  S
Zn1054     O1067   2.011       .  S
Zn1054     O1059   1.932       .  S
O1055      C1066   1.275       .  A
O1055     Cd1060   2.073   1_545  S
Cd1056     O1058   2.073       .  S
Cd1056     O1059   1.991       .  S
Cd1057     O1061   2.062       .  S
Cd1057     O1070   2.048       .  S
Cd1057     O1059   1.989       .  S
O1058      C1068   1.275       .  A
O1059     Cd1060   1.994       .  S
Cd1060     O1062   2.059       .  S
O1061      C1068   1.274       .  A
C1063      C1229   1.481       .  S
C1063      O1067   1.273       .  A
C1064      C1589   1.479       .  S
C1066      C1637   1.489       .  S
C1068      C1282   1.483   1_565  S
C1069      C1306   1.484       .  S
C1069      O1070   1.273       .  A
C1071      C1205   1.481       .  S
C1071      N1072   1.358       .  A
C1071      N1076   1.355       .  A
N1072      C1073   1.360       .  A
C1073      C1253   1.491       .  S
C1073      N1074   1.362       .  A
N1074      C1075   1.362       .  A
C1075      C1349   1.494       .  S
C1075      N1076   1.357       .  A
C1077      C1181   1.488       .  S
C1077      N1078   1.360       .  A
C1077      N1082   1.359       .  A
N1078      C1079   1.361       .  A
C1079      C1234   1.486       .  S
C1079      N1080   1.358       .  A
N1080      C1081   1.357       .  A
C1081      C1330   1.480       .  S
C1081      N1082   1.356       .  A
O1083      C1099   1.275       .  A
O1083     Zn1089   2.013       .  S
C1084      C1469   1.493       .  S
C1084      O1100   1.274       .  A
C1084      O1097   1.273       .  A
O1085      C1098   1.274       .  A
O1085     Cd1092   2.068       .  S
O1086      C1104   1.275       .  A
O1086     Cd1095   2.068       .  S
O1087      C1101   1.275       .  A
O1087     Cd1091   2.073       .  S
O1088      C1099   1.274       .  A
O1088     Cd1091   2.069       .  S
Zn1089     O1100   2.014       .  S
Zn1089     O1102   2.014       .  S
Zn1089     O1094   1.943       .  S
O1090      C1101   1.275       .  A
O1090     Cd1095   2.071       .  S
Cd1091     O1093   2.071       .  S
Cd1091     O1094   1.998       .  S
Cd1092     O1096   2.073       .  S
Cd1092     O1105   2.076       .  S
Cd1092     O1094   2.002       .  S
O1093      C1103   1.275       .  A
O1094     Cd1095   1.995       .  S
Cd1095     O1097   2.067       .  S
O1096      C1103   1.275       .  A
C1098      C1186   1.476       .  S
C1098      O1102   1.273       .  A
C1099      C1445   1.492       .  S
C1101      C1781   1.484       .  S
C1103      C1157   1.482       .  S
C1104      C1138   1.487       .  S
C1104      O1105   1.276       .  A
O1106      C1122   1.274       .  A
O1106     Zn1112   2.016       .  S
C1107      C1546   1.494       .  S
C1107      O1123   1.275       .  A
C1107      O1120   1.275       .  A
O1108      C1121   1.277       .  A
O1108     Cd1115   2.083       .  S
O1109      C1127   1.275       .  A
O1109     Cd1118   2.073       .  S
O1110      C1124   1.271       .  A
O1110     Cd1114   2.047       .  S
O1111      C1122   1.272       .  A
O1111     Cd1114   2.059       .  S
Zn1112     O1123   2.014       .  S
Zn1112     O1125   2.006       .  S
Zn1112     O1117   1.934       .  S
O1113      C1124   1.275       .  A
O1113     Cd1118   2.063       .  S
Cd1114     O1116   2.057       .  S
Cd1114     O1117   1.988       .  S
Cd1115     O1119   2.082       .  S
Cd1115     O1128   2.076       .  S
Cd1115     O1117   2.000       .  S
O1116      C1126   1.273       .  A
O1117     Cd1118   1.997       .  S
Cd1118     O1120   2.074       .  S
O1119      C1126   1.277       .  A
C1121      C1210   1.490       .  S
C1121      O1125   1.274       .  A
C1122      C1517   1.487       .  S
C1124      C1570   1.484       .  S
C1126      C1133   1.487       .  S
C1127      C1162   1.492       .  S
C1127      O1128   1.277       .  A
C1129      C1130   1.412       .  A
C1129      C1134   1.400       .  A
C1129      C1143   1.444       .  S
C1130      C1131   1.402       .  A
C1130      C1135   1.489       .  S
C1131      C1132   1.401       .  A
C1131      H1150   1.085       .  S
C1132      C1133   1.418       .  A
C1132      C1144   1.445       .  S
C1133      C1134   1.405       .  A
C1134      H1149   1.085       .  S
C1135      C1136   1.403       .  A
C1135      C1140   1.411       .  A
C1136      C1137   1.400       .  A
C1136      H1151   1.085       .  S
C1137      C1138   1.416       .  A
C1137      C1141   1.444       .  S
C1138      C1139   1.407       .  A
C1139      C1140   1.401       .  A
C1139      H1152   1.085       .  S
C1140      C1142   1.444       .  S
C1141      N1145   1.157       .  T
C1142      N1146   1.157       .  T
C1143      N1148   1.157       .  T
C1144      N1147   1.158       .  T
C1153      C1154   1.411       .  A
C1153      C1158   1.402       .  A
C1153      C1167   1.444       .  S
C1154      C1155   1.403       .  A
C1155      C1156   1.400       .  A
C1155      H1174   1.085       .  S
C1156      C1157   1.414       .  A
C1156      C1168   1.445       .  S
C1157      C1158   1.405       .  A
C1158      H1173   1.085       .  S
C1159      C1160   1.402       .  A
C1159      C1164   1.408       .  A
C1160      C1161   1.402       .  A
C1161      C1162   1.418       .  A
C1161      C1165   1.444       .  S
C1162      C1163   1.409       .  A
C1163      C1164   1.400       .  A
C1163      H1176   1.084       .  S
C1164      C1166   1.444       .  S
C1165      N1169   1.157       .  T
C1166      N1170   1.157       .  T
C1167      N1172   1.157       .  T
C1168      N1171   1.157       .  T
C1177      C1178   1.407       .  A
C1177      C1182   1.397       .  A
C1177      C1191   1.444       .  S
C1178      C1179   1.399       .  A
C1178      C1183   1.479       .  S
C1179      C1180   1.401       .  A
C1179      H1198   1.085       .  S
C1180      C1181   1.418       .  A
C1180      C1192   1.443       .  S
C1181      C1182   1.408       .  A
C1182      H1197   1.083       .  S
C1183      C1184   1.401       .  A
C1183      C1188   1.409       .  A
C1184      C1185   1.401       .  A
C1184      H1199   1.085       .  S
C1185      C1186   1.413       .  A
C1185      C1189   1.444       .  S
C1186      C1187   1.404       .  A
C1187      C1188   1.399       .  A
C1187      H1200   1.085       .  S
C1188      C1190   1.444       .  S
C1189      N1193   1.157       .  T
C1190      N1194   1.157       .  T
C1191      N1196   1.157       .  T
C1192      N1195   1.157       .  T
C1201      C1202   1.409       .  A
C1201      C1206   1.401       .  A
C1201      C1215   1.444       .  S
C1202      C1203   1.402       .  A
C1202      C1207   1.483       .  S
C1203      C1204   1.400       .  A
C1203      H1222   1.085       .  S
C1204      C1205   1.415       .  A
C1204      C1216   1.444       .  S
C1205      C1206   1.405       .  A
C1206      H1221   1.085       .  S
C1207      C1208   1.402       .  A
C1207      C1212   1.408       .  A
C1208      C1209   1.402       .  A
C1208      H1223   1.085       .  S
C1209      C1210   1.416       .  A
C1209      C1213   1.444       .  S
C1210      C1211   1.410       .  A
C1211      C1212   1.400       .  A
C1211      H1224   1.084       .  S
C1212      C1214   1.444       .  S
C1213      N1217   1.157       .  T
C1214      N1218   1.157       .  T
C1215      N1220   1.157       .  T
C1216      N1219   1.157       .  T
C1225      C1226   1.411       .  A
C1225      C1230   1.400       .  A
C1225      C1239   1.444       .  S
C1226      C1227   1.403       .  A
C1226      C1231   1.486       .  S
C1227      C1228   1.399       .  A
C1227      H1246   1.085       .  S
C1228      C1229   1.414       .  A
C1228      C1240   1.445       .  S
C1229      C1230   1.405       .  A
C1230      H1245   1.085       .  S
C1231      C1232   1.402       .  A
C1231      C1236   1.410       .  A
C1232      C1233   1.400       .  A
C1232      H1247   1.085       .  S
C1233      C1234   1.417       .  A
C1233      C1237   1.444       .  S
C1234      C1235   1.405       .  A
C1235      C1236   1.399       .  A
C1235      H1248   1.082       .  S
C1236      C1238   1.445       .  S
C1237      N1241   1.157       .  T
C1238      N1242   1.157       .  T
C1239      N1244   1.157       .  T
C1240      N1243   1.157       .  T
C1249      C1250   1.409       .  A
C1249      C1254   1.403       .  A
C1249      C1263   1.444       .  S
C1250      C1251   1.402       .  A
C1250      C1255   1.488       .  S
C1251      C1252   1.402       .  A
C1251      H1270   1.085       .  S
C1252      C1253   1.418       .  A
C1252      C1264   1.444       .  S
C1253      C1254   1.408       .  A
C1254      H1269   1.084       .  S
C1255      C1256   1.404       .  A
C1255      C1260   1.411       .  A
C1256      C1257   1.403       .  A
C1256      H1271   1.085       .  S
C1257      C1258   1.414       .  A
C1257      C1261   1.444       .  S
C1258      C1259   1.405       .  A
C1259      C1260   1.402       .  A
C1259      H1272   1.085       .  S
C1260      C1262   1.444       .  S
C1261      N1265   1.157       .  T
C1262      N1266   1.157       .  T
C1263      N1268   1.157       .  T
C1264      N1267   1.157       .  T
C1273      C1274   1.409       .  A
C1273      C1278   1.402       .  A
C1273      C1287   1.444       .  S
C1274      C1275   1.402       .  A
C1275      C1276   1.401       .  A
C1276      C1277   1.415       .  A
C1276      C1288   1.444       .  S
C1277      C1278   1.407       .  A
C1278      H1293   1.085       .  S
C1279      C1280   1.402       .  A
C1279      C1284   1.409   1_545  A
C1280      C1281   1.400       .  A
C1280      H1295   1.085       .  S
C1281      C1282   1.415       .  A
C1281      C1285   1.444       .  S
C1282      C1283   1.407   1_545  A
C1283      C1284   1.399       .  A
C1283      H1296   1.085       .  S
C1284      C1286   1.444       .  S
C1285      N1289   1.157       .  T
C1286      N1290   1.157       .  T
C1287      N1292   1.157       .  T
C1297      C1298   1.409       .  A
C1297      C1302   1.397       .  A
C1297      C1311   1.444       .  S
C1298      C1299   1.402       .  A
C1298      C1303   1.480       .  S
C1299      C1300   1.400       .  A
C1299      H1318   1.085   1_545  S
C1300      C1301   1.415       .  A
C1300      C1312   1.445       .  S
C1301      C1302   1.404       .  A
C1302      H1317   1.085       .  S
C1303      C1304   1.403       .  A
C1303      C1308   1.406       .  A
C1304      C1305   1.400       .  A
C1304      H1319   1.085       .  S
C1305      C1306   1.416   1_545  A
C1305      C1309   1.444       .  S
C1306      C1307   1.409       .  A
C1307      C1308   1.396   1_565  A
C1307      H1320   1.084       .  S
C1308      C1310   1.444       .  S
C1309      N1313   1.157       .  T
C1310      N1314   1.157       .  T
C1311      N1316   1.157       .  T
C1312      N1315   1.158   1_545  T
C1321      C1322   1.409       .  A
C1321      C1326   1.401       .  A
C1321      C1335   1.444       .  S
C1322      C1323   1.401       .  A
C1322      C1327   1.483       .  S
C1323      C1324   1.398       .  A
C1323      H1342   1.085       .  S
C1324      C1325   1.417       .  A
C1324      C1336   1.445       .  S
C1325      C1326   1.408       .  A
C1326      H1341   1.084       .  S
C1327      C1328   1.402       .  A
C1327      C1332   1.410       .  A
C1328      C1329   1.400       .  A
C1328      H1343   1.085       .  S
C1329      C1330   1.415       .  A
C1329      C1333   1.444       .  S
C1330      C1331   1.404       .  A
C1331      C1332   1.398       .  A
C1331      H1344   1.085       .  S
C1332      C1334   1.444       .  S
C1333      N1337   1.157       .  T
C1334      N1338   1.157       .  T
C1335      N1340   1.157       .  T
C1336      N1339   1.157       .  T
C1345      C1346   1.411       .  A
C1345      C1350   1.402       .  A
C1345      C1359   1.444       .  S
C1346      C1347   1.401       .  A
C1346      C1351   1.490       .  S
C1347      C1348   1.400       .  A
C1347      H1366   1.085       .  S
C1348      C1349   1.421       .  A
C1348      C1360   1.445       .  S
C1349      C1350   1.408       .  A
C1350      H1365   1.084       .  S
C1351      C1352   1.404       .  A
C1351      C1356   1.412       .  A
C1352      C1353   1.400       .  A
C1352      H1367   1.085       .  S
C1353      C1354   1.414       .  A
C1353      C1357   1.444       .  S
C1354      C1355   1.405       .  A
C1355      C1356   1.401       .  A
C1355      H1368   1.085       .  S
C1356      C1358   1.444       .  S
C1357      N1361   1.157       .  T
C1358      N1362   1.157       .  T
C1359      N1364   1.157       .  T
C1360      N1363   1.158       .  T
C1369      C1370   1.408       .  A
C1369      C1374   1.400       .  A
C1369      C1383   1.444       .  S
C1370      C1371   1.400       .  A
C1371      C1372   1.401       .  A
C1372      C1373   1.418       .  A
C1372      C1384   1.444       .  S
C1373      C1374   1.409       .  A
C1374      H1389   1.084       .  S
C1375      C1376   1.402       .  A
C1375      C1380   1.411       .  A
C1376      C1377   1.400       .  A
C1377      C1378   1.413       .  A
C1377      C1381   1.444       .  S
C1378      C1379   1.404       .  A
C1379      C1380   1.402       .  A
C1379      H1392   1.085       .  S
C1380      C1382   1.444       .  S
C1381      N1385   1.157   1_455  T
C1382      N1386   1.157       .  T
C1383      N1388   1.157       .  T
C1384      N1387   1.157       .  T
C1393      C1394   1.408       .  A
C1393      C1398   1.398       .  A
C1393      C1407   1.444       .  S
C1394      C1395   1.399       .  A
C1394      C1399   1.476       .  S
C1395      C1396   1.396       .  A
C1395      H1414   1.085       .  S
C1396      C1397   1.417       .  A
C1396      C1408   1.445       .  S
C1397      C1398   1.406       .  A
C1398      H1413   1.085       .  S
C1399      C1400   1.402       .  A
C1399      C1404   1.408       .  A
C1400      C1401   1.398       .  A
C1400      H1415   1.085       .  S
C1401      C1402   1.413       .  A
C1401      C1405   1.444   1_455  S
C1402      C1403   1.404       .  A
C1403      C1404   1.395       .  A
C1403      H1416   1.085       .  S
C1404      C1406   1.445       .  S
C1405      N1409   1.157       .  T
C1406      N1410   1.157       .  T
C1407      N1412   1.157       .  T
C1408      N1411   1.157       .  T
C1417      C1418   1.410       .  A
C1417      C1422   1.400       .  A
C1417      C1431   1.443       .  S
C1418      C1419   1.401       .  A
C1418      C1423   1.478       .  S
C1419      C1420   1.397       .  A
C1419      H1438   1.085       .  S
C1420      C1421   1.410       .  A
C1420      C1432   1.445       .  S
C1421      C1422   1.402       .  A
C1422      H1437   1.085       .  S
C1423      C1424   1.398       .  A
C1423      C1428   1.406       .  A
C1424      C1425   1.399       .  A
C1424      H1439   1.085       .  S
C1425      C1426   1.421       .  A
C1425      C1429   1.444       .  S
C1426      C1427   1.411       .  A
C1427      C1428   1.400       .  A
C1427      H1440   1.084       .  S
C1428      C1430   1.444       .  S
C1429      N1433   1.157       .  T
C1430      N1434   1.157       .  T
C1431      N1436   1.157       .  T
C1432      N1435   1.157       .  T
C1441      C1446   1.399       .  A
C1441      C1455   1.444       .  S
C1442      C1443   1.399       .  A
C1442      C1447   1.475       .  S
C1443      H1462   1.085       .  S
C1444      C1445   1.420       .  A
C1444      C1456   1.444       .  S
C1445      C1446   1.410       .  A
C1446      H1461   1.084       .  S
C1447      C1448   1.401       .  A
C1447      C1452   1.410       .  A
C1448      C1449   1.395       .  A
C1448      H1463   1.085       .  S
C1449      C1450   1.410       .  A
C1449      C1453   1.445       .  S
C1450      C1451   1.402       .  A
C1451      C1452   1.400       .  A
C1451      H1464   1.085       .  S
C1452      C1454   1.443       .  S
C1453      N1457   1.157       .  T
C1454      N1458   1.157   1_556  T
C1455      N1460   1.157       .  T
C1456      N1459   1.157       .  T
C1465      C1466   1.406       .  A
C1465      C1470   1.400       .  A
C1465      C1479   1.444       .  S
C1466      C1467   1.400       .  A
C1466      C1471   1.481       .  S
C1467      C1468   1.400       .  A
C1467      H1486   1.085       .  S
C1468      C1469   1.420       .  A
C1468      C1480   1.444       .  S
C1469      C1470   1.411       .  A
C1470      H1485   1.084       .  S
C1471      C1472   1.403       .  A
C1471      C1476   1.408       .  A
C1472      C1473   1.403       .  A
C1472      H1487   1.085       .  S
C1473      C1474   1.414       .  A
C1473      C1477   1.443       .  S
C1474      C1475   1.405       .  A
C1475      C1476   1.395       .  A
C1475      H1488   1.085       .  S
C1476      C1478   1.445       .  S
C1477      N1481   1.157       .  T
C1478      N1482   1.157       .  T
C1479      N1484   1.157       .  T
C1480      N1483   1.157       .  T
C1489      C1490   1.410       .  A
C1489      C1494   1.398       .  A
C1489      C1503   1.444       .  S
C1490      C1491   1.403       .  A
C1490      C1495   1.480       .  S
C1491      C1492   1.400       .  A
C1491      H1510   1.085       .  S
C1492      C1493   1.410       .  A
C1492      C1504   1.444       .  S
C1493      C1494   1.401       .  A
C1494      H1509   1.085       .  S
C1495      C1496   1.400   1_655  A
C1495      C1500   1.406   1_655  A
C1496      C1497   1.400       .  A
C1496      H1511   1.085   1_455  S
C1497      C1498   1.421       .  A
C1497      C1501   1.444       .  S
C1498      C1499   1.410       .  A
C1499      C1500   1.399       .  A
C1499      H1512   1.084       .  S
C1500      C1502   1.444   1_455  S
C1501      N1505   1.157       .  T
C1502      N1506   1.157       .  T
C1503      N1508   1.157   1_655  T
C1504      N1507   1.157       .  T
C1513      C1514   1.409       .  A
C1513      C1518   1.399       .  A
C1513      C1527   1.444       .  S
C1514      C1515   1.402       .  A
C1514      C1519   1.484       .  S
C1515      C1516   1.399       .  A
C1515      H1534   1.085       .  S
C1516      C1517   1.418       .  A
C1516      C1528   1.445       .  S
C1517      C1518   1.408       .  A
C1518      H1533   1.084       .  S
C1519      C1520   1.404       .  A
C1519      C1524   1.411       .  A
C1520      C1521   1.398       .  A
C1520      H1535   1.085       .  S
C1521      C1522   1.411       .  A
C1521      C1525   1.444       .  S
C1522      C1523   1.404       .  A
C1523      C1524   1.399       .  A
C1523      H1536   1.085       .  S
C1524      C1526   1.444       .  S
C1525      N1529   1.157       .  T
C1526      N1530   1.157       .  T
C1527      N1532   1.157       .  T
C1528      N1531   1.157       .  T
C1537      C1538   1.409       .  A
C1537      C1542   1.398       .  A
C1537      C1551   1.444       .  S
C1538      C1539   1.401       .  A
C1538      C1543   1.475       .  S
C1539      C1540   1.398       .  A
C1539      H1558   1.085       .  S
C1540      C1541   1.412       .  A
C1540      C1552   1.444       .  S
C1541      C1542   1.403       .  A
C1542      H1557   1.085       .  S
C1543      C1544   1.399       .  A
C1544      H1559   1.085       .  S
C1545      C1546   1.420       .  A
C1545      C1549   1.444       .  S
C1546      C1547   1.410       .  A
C1547      C1548   1.399       .  A
C1547      H1560   1.084       .  S
C1548      C1550   1.444       .  S
C1549      N1553   1.157       .  T
C1550      N1554   1.157       .  T
C1551      N1556   1.157       .  T
C1552      N1555   1.157       .  T
C1561      C1562   1.408       .  A
C1561      C1566   1.397       .  A
C1561      C1575   1.444       .  S
C1562      C1563   1.400       .  A
C1562      C1567   1.473       .  S
C1563      C1564   1.396       .  A
C1563      H1582   1.085       .  S
C1564      C1565   1.411       .  A
C1564      C1576   1.444       .  S
C1565      C1566   1.404       .  A
C1566      H1581   1.085       .  S
C1567      C1568   1.398       .  A
C1567      C1572   1.406       .  A
C1568      C1569   1.397       .  A
C1568      H1583   1.085       .  S
C1569      C1570   1.420       .  A
C1569      C1573   1.445       .  S
C1570      C1571   1.408       .  A
C1571      C1572   1.396       .  A
C1571      H1584   1.084       .  S
C1572      C1574   1.445       .  S
C1573      N1577   1.158       .  T
C1574      N1578   1.157       .  T
C1575      N1580   1.157       .  T
C1576      N1579   1.157       .  T
C1585      C1590   1.396       .  A
C1586      C1591   1.480   1_554  S
C1587      C1588   1.395       .  A
C1587      H1606   1.085       .  S
C1588      C1589   1.415       .  A
C1588      C1600   1.445       .  S
C1589      C1590   1.409       .  A
C1590      H1605   1.085       .  S
C1591      C1592   1.403       .  A
C1591      C1596   1.410       .  A
C1592      C1593   1.397       .  A
C1592      H1607   1.085       .  S
C1593      C1594   1.410       .  A
C1593      C1597   1.444       .  S
C1594      C1595   1.402       .  A
C1595      C1596   1.398       .  A
C1595      H1608   1.085       .  S
C1597      N1601   1.157       .  T
C1598      N1602   1.157       .  T
C1599      N1604   1.157       .  T
C1600      N1603   1.157       .  T
C1609      C1610   1.407       .  A
C1609      C1614   1.394       .  A
C1609      C1623   1.445       .  S
C1610      C1611   1.400       .  A
C1610      C1615   1.471       .  S
C1611      C1612   1.399       .  A
C1611      H1630   1.085       .  S
C1612      C1613   1.414       .  A
C1612      C1624   1.444       .  S
C1613      C1614   1.403       .  A
C1614      H1629   1.085       .  S
C1615      C1616   1.398       .  A
C1615      C1620   1.405       .  A
C1616      C1617   1.397       .  A
C1616      H1631   1.085       .  S
C1617      C1618   1.417       .  A
C1617      C1621   1.444       .  S
C1618      C1619   1.408       .  A
C1619      C1620   1.397       .  A
C1619      H1632   1.084       .  S
C1620      C1622   1.444       .  S
C1621      N1625   1.157       .  T
C1622      N1626   1.157       .  T
C1623      N1628   1.157       .  T
C1624      N1627   1.157       .  T
C1633      C1634   1.408       .  A
C1633      C1638   1.400       .  A
C1633      C1647   1.444       .  S
C1634      C1635   1.400       .  A
C1634      C1639   1.481       .  S
C1635      C1636   1.399       .  A
C1635      H1654   1.085       .  S
C1636      C1637   1.419       .  A
C1636      C1648   1.445       .  S
C1637      C1638   1.408       .  A
C1638      H1653   1.084       .  S
C1639      C1640   1.401       .  A
C1639      C1644   1.409       .  A
C1640      C1641   1.401       .  A
C1640      H1655   1.085       .  S
C1641      C1642   1.415       .  A
C1641      C1645   1.444       .  S
C1642      C1643   1.405       .  A
C1643      C1644   1.399       .  A
C1643      H1656   1.085       .  S
C1644      C1646   1.444       .  S
C1645      N1649   1.157       .  T
C1646      N1650   1.157       .  T
C1647      N1652   1.157       .  T
C1648      N1651   1.157       .  T
C1657      C1658   1.408       .  A
C1657      C1662   1.397       .  A
C1657      C1671   1.444       .  S
C1658      C1659   1.402       .  A
C1658      C1663   1.479       .  S
C1659      C1660   1.399       .  A
C1659      H1678   1.085       .  S
C1660      C1661   1.413       .  A
C1660      C1672   1.444       .  S
C1661      C1662   1.406       .  A
C1662      H1677   1.085       .  S
C1663      C1664   1.401       .  A
C1663      C1668   1.407       .  A
C1664      C1665   1.398       .  A
C1664      H1679   1.085       .  S
C1665      C1666   1.416       .  A
C1665      C1669   1.445       .  S
C1666      C1667   1.406       .  A
C1667      C1668   1.399       .  A
C1667      H1680   1.085       .  S
C1668      C1670   1.444       .  S
C1669      N1673   1.157       .  T
C1670      N1674   1.157       .  T
C1671      N1676   1.157   1_655  T
C1672      N1675   1.157       .  T
C1681      C1682   1.408       .  A
C1681      C1686   1.396       .  A
C1681      C1695   1.444       .  S
C1682      C1683   1.403       .  A
C1682      C1687   1.479       .  S
C1683      C1684   1.403       .  A
C1683      H1702   1.085       .  S
C1684      C1685   1.412       .  A
C1684      C1696   1.443       .  S
C1685      C1686   1.404       .  A
C1686      H1701   1.085       .  S
C1687      C1688   1.401       .  A
C1688      H1703   1.085       .  S
C1689      C1690   1.421       .  A
C1689      C1693   1.445   1_655  S
C1690      C1691   1.410       .  A
C1691      C1692   1.397       .  A
C1691      H1704   1.084       .  S
C1692      C1694   1.444       .  S
C1693      N1697   1.158   1_556  T
C1694      N1698   1.157       .  T
C1695      N1700   1.157       .  T
C1696      N1699   1.157       .  T
C1705      C1706   1.409       .  A
C1705      C1710   1.400       .  A
C1705      C1719   1.444       .  S
C1706      C1707   1.402       .  A
C1706      C1711   1.484       .  S
C1707      C1708   1.401       .  A
C1707      H1726   1.085       .  S
C1708      C1709   1.416       .  A
C1708      C1720   1.444       .  S
C1709      C1710   1.405       .  A
C1710      H1725   1.085       .  S
C1711      C1712   1.401       .  A
C1711      C1716   1.409       .  A
C1712      C1713   1.402       .  A
C1712      H1727   1.085       .  S
C1713      C1714   1.419   1_565  A
C1713      C1717   1.444   1_565  S
C1714      C1715   1.408   1_545  A
C1715      C1716   1.400       .  A
C1715      H1728   1.084       .  S
C1716      C1718   1.444       .  S
C1717      N1721   1.157       .  T
C1718      N1722   1.157       .  T
C1719      N1724   1.157       .  T
C1720      N1723   1.157       .  T
C1729      C1730   1.409       .  A
C1729      C1734   1.396       .  A
C1729      C1743   1.445       .  S
C1730      C1731   1.402       .  A
C1730      C1735   1.477   1_556  S
C1731      C1732   1.401       .  A
C1731      H1750   1.085       .  S
C1732      C1733   1.411       .  A
C1732      C1744   1.443       .  S
C1733      C1734   1.403       .  A
C1734      H1749   1.085       .  S
C1735      C1740   1.407       .  A
C1736      C1737   1.400       .  A
C1736      H1751   1.085       .  S
C1737      C1738   1.421       .  A
C1737      C1741   1.444       .  S
C1738      C1739   1.408       .  A
C1739      H1752   1.084       .  S
C1740      C1742   1.444   1_554  S
C1741      N1745   1.157       .  T
C1742      N1746   1.157       .  T
C1743      N1748   1.157       .  T
C1744      N1747   1.157       .  T
C1753      C1754   1.409       .  A
C1753      C1758   1.399       .  A
C1753      C1767   1.444       .  S
C1754      C1755   1.401       .  A
C1754      C1759   1.479       .  S
C1755      C1756   1.402       .  A
C1755      H1774   1.085       .  S
C1756      C1757   1.414       .  A
C1756      C1768   1.444       .  S
C1757      C1758   1.403       .  A
C1758      H1773   1.085       .  S
C1759      C1760   1.402       .  A
C1759      C1764   1.408       .  A
C1760      C1761   1.400       .  A
C1760      H1775   1.085       .  S
C1761      C1762   1.412       .  A
C1761      C1765   1.444       .  S
C1762      C1763   1.405       .  A
C1763      C1764   1.399       .  A
C1763      H1776   1.085       .  S
C1764      C1766   1.444       .  S
C1765      N1769   1.157       .  T
C1766      N1770   1.157       .  T
C1767      N1772   1.157       .  T
C1768      N1771   1.157       .  T
C1777      C1778   1.409       .  A
C1777      C1782   1.402       .  A
C1777      C1791   1.444       .  S
C1778      C1779   1.401       .  A
C1778      C1783   1.482       .  S
C1779      C1780   1.401       .  A
C1779      H1798   1.085       .  S
C1780      C1781   1.416       .  A
C1780      C1792   1.444       .  S
C1781      C1782   1.406       .  A
C1782      H1797   1.085       .  S
C1783      C1784   1.401       .  A
C1783      C1788   1.409       .  A
C1784      C1785   1.401       .  A
C1784      H1799   1.085       .  S
C1785      C1786   1.413       .  A
C1785      C1789   1.444       .  S
C1786      C1787   1.405       .  A
C1787      C1788   1.402       .  A
C1787      H1800   1.085       .  S
C1788      C1790   1.444       .  S
C1789      N1793   1.157       .  T
C1790      N1794   1.157       .  T
C1791      N1796   1.157       .  T
C1792      N1795   1.157       .  T
C1801      C1802   1.410       .  A
C1801      C1806   1.404       .  A
C1801      C1815   1.443       .  S
C1802      C1803   1.401       .  A
C1802      C1807   1.481       .  S
C1803      C1804   1.397       .  A
C1803      H1822   1.085       .  S
C1804      C1805   1.411       .  A
C1804      C1816   1.445       .  S
C1805      C1806   1.403       .  A
C1806      H1821   1.084       .  S
C1807      C1808   1.400       .  A
C1807      C1812   1.405       .  A
C1808      C1809   1.403       .  A
C1808      H1823   1.085       .  S
C1809      C1810   1.421       .  A
C1809      C1813   1.444       .  S
C1810      C1811   1.411       .  A
C1811      C1812   1.399       .  A
C1811      H1824   1.084       .  S
C1812      C1814   1.444       .  S
C1813      N1817   1.158       .  T
C1814      N1818   1.157       .  T
C1815      N1820   1.157       .  T
C1816      N1819   1.157       .  T
C1825      C1826   1.408       .  A
C1825      C1839   1.444       .  S
C1826      C1831   1.477       .  S
C1827      C1828   1.400       .  A
C1827      H1846   1.085       .  S
C1828      C1829   1.417       .  A
C1828      C1840   1.444       .  S
C1829      C1830   1.407       .  A
C1830      H1845   1.085       .  S
C1831      C1832   1.402       .  A
C1831      C1836   1.409       .  A
C1832      C1833   1.399       .  A
C1832      H1847   1.085       .  S
C1833      C1834   1.410       .  A
C1833      C1837   1.444       .  S
C1834      C1835   1.403       .  A
C1835      C1836   1.399       .  A
C1835      H1848   1.085       .  S
C1836      C1838   1.444       .  S
C1837      N1841   1.157       .  T
C1838      N1842   1.157       .  T
C1839      N1844   1.157       .  T
C1840      N1843   1.157       .  T
