geometry optimzed in LAMMPS
_audit_creation_date              2020-12-01 
_audit_creation_method            'lammps2cif' 
_symmetry_space_group_name_H-M    'P1' 
_symmetry_Int_Tables_number       1 
_symmetry_cell_setting            triclinic 
loop_ 
_symmetry_equiv_pos_as_xyz 
  x,y,z 
_cell_length_a                    32.59795701 
_cell_length_b                    32.66003465998141 
_cell_length_c                    43.540645457551584 
_cell_angle_alpha                 90.00643127106274 
_cell_angle_beta                  90.45977651014337 
_cell_angle_gamma                 90.28876108377023 
loop_ 
_atom_site_label 
_atom_site_type_symbol 
_atom_site_fract_x 
_atom_site_fract_y 
_atom_site_fract_z 
_atom_site_charge 
O1          O  0.32632779  0.96367820  0.04524696    -0.74300
O2          O  0.32804856  0.96526499  0.45749011    -0.74400
O3          O  0.38630882  0.96260857  0.00267617    -0.74400
O4          O  0.26751830  0.96555204  0.49964857    -0.74500
O5          O  0.27155985  0.03488643  0.00195990    -0.74400
O6          O  0.38655895  0.03144286  0.50311550    -0.74400
O7          O  0.32844665  0.03346570  0.45826090    -0.74300
O8          O  0.33014137  0.03178674  0.04622232    -0.74400
Ni9        Ni  0.32758268  0.96227620  0.00125156     1.25400
Ni10       Ni  0.32788000  0.03509835  0.50223085     1.25400
C11         C  0.32809320  0.99739640  0.06025899     0.87900
C12         C  0.32854538  0.99966698  0.44333556     0.87800
C13         C  0.40714383  0.99593897  0.00325158     0.87800
C14         C  0.25100929  0.00139868  0.00046632     0.88000
O15         O  0.33244728  0.96459697  0.20768590    -0.74300
O16         O  0.33376889  0.96445895  0.29555519    -0.74400
O17         O  0.27444775  0.96510169  0.25165831    -0.74400
O18         O  0.39180728  0.96409271  0.25144367    -0.74500
O19         O  0.39277241  0.03221195  0.25213197    -0.74400
O20         O  0.27542018  0.03339168  0.25077882    -0.74400
O21         O  0.33370131  0.03266138  0.29568283    -0.74300
O22         O  0.33439224  0.03279657  0.20781552    -0.74400
Ni23       Ni  0.33308972  0.96213251  0.25161467     1.25400
Ni24       Ni  0.33411736  0.03519656  0.25166704     1.25400
C25         C  0.33341446  0.99875279  0.19323892     0.87900
C26         C  0.33392792  0.99849044  0.31017149     0.87800
C27         C  0.25563820  0.99942735  0.25088085     0.87800
C28         C  0.41178029  0.99796783  0.25149598     0.88000
O29         O  0.04021378  0.66806391  0.04516061    -0.74300
O30         O  0.03628445  0.66919005  0.45741605    -0.74400
O31         O  0.03782370  0.72625740  0.00104592    -0.74400
O32         O  0.04018382  0.61028601  0.50100121    -0.74500
O33         O  0.97110523  0.60783970  0.00230122    -0.74400
O34         O  0.96674387  0.72446381  0.50148933    -0.74400
O35         O  0.96804942  0.66562855  0.45796609    -0.74300
O36         O  0.97187540  0.66727716  0.04575867    -0.74400
Ni37       Ni  0.04108986  0.66763403  0.00120308     1.25400
Ni38       Ni  0.96708523  0.66592716  0.50195144     1.25400
C39         C  0.00645876  0.66778173  0.05999088     0.87900
C40         C  0.00178900  0.66740171  0.44314287     0.87800
C41         C  0.00325403  0.74471107  0.00059357     0.87800
C42         C  0.00672961  0.58946745  0.50118273     0.88000
O43         O  0.04425423  0.67333344  0.20822976    -0.74300
O44         O  0.04137678  0.66889903  0.29612434    -0.74400
O45         O  0.04272702  0.61236564  0.25058096    -0.74400
O46         O  0.04295262  0.72986871  0.25397043    -0.74500
O47         O  0.97456326  0.72939037  0.25122159    -0.74400
O48         O  0.97446276  0.61229233  0.24983368    -0.74400
O49         O  0.97311318  0.66974879  0.29461349    -0.74300
O50         O  0.97591142  0.67174708  0.20686959    -0.74400
Ni51       Ni  0.04529849  0.67114912  0.25230099     1.25400
Ni52       Ni  0.97211989  0.67083095  0.25062385     1.25400
C53         C  0.01041927  0.67284985  0.19303142     0.87900
C54         C  0.00681416  0.66843469  0.30992379     0.87800
C55         C  0.00850726  0.59284358  0.24971142     0.87800
C56         C  0.00870194  0.74887900  0.25265692     0.88000
O57         O  0.66506402  0.02790674  0.04914615    -0.74300
O58         O  0.66291875  0.02868673  0.46122236    -0.74400
O59         O  0.60599438  0.02889430  0.00519602    -0.74400
O60         O  0.72135483  0.02789637  0.50529090    -0.74500
O61         O  0.72217640  0.95942845  0.00454322    -0.74400
O62         O  0.60225974  0.96252538  0.50569418    -0.74400
O63         O  0.66015334  0.96057201  0.46144545    -0.74300
O64         O  0.66430644  0.95980182  0.04889792    -0.74400
Ni65       Ni  0.66455372  0.03057390  0.00529437     1.25400
Ni66       Ni  0.66092878  0.95849820  0.50523951     1.25400
C67         C  0.66530460  0.99372807  0.06359434     0.87900
C68         C  0.66222869  0.99446136  0.44680277     0.87800
C69         C  0.58573441  0.99524501  0.00496225     0.87800
C70         C  0.74184573  0.99351115  0.00473937     0.88000
O71         O  0.67008141  0.03175082  0.21155683    -0.74300
O72         O  0.66838423  0.03166114  0.29909998    -0.74400
O73         O  0.72777490  0.03058419  0.25651077    -0.74400
O74         O  0.61066765  0.03297874  0.25426607    -0.74500
O75         O  0.60878961  0.96489325  0.25453701    -0.74400
O76         O  0.72638589  0.96231548  0.25577177    -0.74400
O77         O  0.66718133  0.96354139  0.29917967    -0.74300
O78         O  0.66780442  0.96366773  0.21135880    -0.74400
Ni79       Ni  0.66931594  0.03412284  0.25535260     1.25400
Ni80       Ni  0.66750615  0.96112632  0.25522680     1.25400
C81         C  0.66873028  0.99781713  0.19688827     0.87900
C82         C  0.66733429  0.99769187  0.31369611     0.87800
C83         C  0.74639033  0.99617683  0.25663782     0.87800
C84         C  0.59022269  0.99942353  0.25403462     0.88000
O85         O  0.93436158  0.99850765  0.47069997    -0.74300
O86         O  0.05200066  0.99892958  0.46995898    -0.74400
O87         O  0.99276001  0.94028176  0.47129066    -0.74400
O88         O  0.99293930  0.05760618  0.46903003    -0.74500
O89         O  0.99584615  0.05841182  0.02065058    -0.74400
O90         O  0.99832275  0.94115228  0.02088711    -0.74400
O91         O  0.05539552  0.00161171  0.02048978    -0.74300
O92         O  0.93852299  0.99830949  0.02162019    -0.74400
Ni93       Ni  0.99303007  0.99883098  0.46838823     1.25400
Ni94       Ni  0.99703117  0.99984976  0.02271249     1.25400
C95         C  0.91823909  0.99658612  0.99637734     0.87900
C96         C  0.07405311  0.00183384  0.99477606     0.87800
C97         C  0.99824791  0.92148879  0.99536386     0.87800
C98         C  0.99405016  0.07736999  0.99492227     0.88000
O99         O  0.94082966  0.99913337  0.22735606    -0.74300
O100        O  0.05807528  0.00556588  0.22338855    -0.74400
O101        O  0.00230583  0.94413642  0.22685514    -0.74400
O102        O  0.99621619  0.06102813  0.22370220    -0.74500
O103        O  0.00120455  0.06376951  0.27474012    -0.74400
O104        O  0.00452795  0.94638197  0.27800568    -0.74400
O105        O  0.06118441  0.00631478  0.27460458    -0.74300
O106        O  0.94417867  0.00340891  0.27845885    -0.74400
Ni107      Ni  0.99924790  0.00246054  0.22349934     1.25400
Ni108      Ni  0.00288080  0.00515588  0.27827624     1.25400
C109        C  0.92327250  0.00002311  0.25356549     0.87900
C110        C  0.07888199  0.00590182  0.24848277     0.87800
C111        C  0.00447207  0.92592402  0.25287423     0.87800
C112        C  0.99756668  0.08173908  0.24867228     0.88000
O113        O  0.96236160  0.33240958  0.03654696    -0.74300
O114        O  0.96896525  0.33387745  0.44866519    -0.74400
O115        O  0.96406089  0.27380660  0.99250298    -0.74400
O116        O  0.96830283  0.39196284  0.49302286    -0.74500
O117        O  0.03365426  0.39071642  0.99507216    -0.74400
O118        O  0.03373970  0.27369331  0.49478750    -0.74400
O119        O  0.03723727  0.33258993  0.45076813    -0.74300
O120        O  0.03067811  0.33213286  0.03893301    -0.74400
Ni121      Ni  0.96230457  0.33245230  0.99260571     1.25400
Ni122      Ni  0.03750197  0.33233797  0.49488946     1.25400
C123        C  0.99574682  0.33255773  0.05222619     0.87900
C124        C  0.00371958  0.33333862  0.43517991     0.87800
C125        C  0.99800655  0.25431932  0.99423735     0.87800
C126        C  0.99974183  0.41042564  0.99431909     0.88000
O127        O  0.03056595  0.33522266  0.19949615    -0.74300
O128        O  0.03341356  0.33612844  0.28723331    -0.74400
O129        O  0.03020411  0.27736054  0.24392419    -0.74400
O130        O  0.03377328  0.39451461  0.24309572    -0.74500
O131        O  0.96555697  0.39614731  0.24427037    -0.74400
O132        O  0.96175956  0.27867121  0.24328396    -0.74400
O133        O  0.96508937  0.33654043  0.28777232    -0.74300
O134        O  0.96228169  0.33789772  0.19979574    -0.74400
Ni135      Ni  0.03438524  0.33582564  0.24334060     1.25400
Ni136      Ni  0.96120463  0.33747561  0.24379961     1.25400
C137        C  0.99612277  0.33576344  0.18514214     0.87900
C138        C  0.99964006  0.33553377  0.30202893     0.87800
C139        C  0.99551867  0.25877646  0.24406270     0.87800
C140        C  0.00024666  0.41481059  0.24375329     0.88000
C141        C  0.00080998  0.33369258  0.33606553    -0.00100
C142        C  0.03511258  0.34977388  0.35179534    -0.11900
C143        C  0.03726884  0.34952971  0.38396011     0.02200
C144        C  0.00441889  0.33308774  0.40110562    -0.00100
C145        C  0.97060715  0.31617757  0.38531323    -0.11900
C146        C  0.96872646  0.31587248  0.35322085     0.02100
H147        H  0.06013817  0.36325443  0.33893702     0.15100
H148        H  0.94564735  0.30246508  0.39811572     0.15100
C149        C  0.93439539  0.29528121  0.33867288     0.36700
C150        C  0.07291721  0.36761568  0.39857570     0.36600
N151        N  0.90702379  0.27848829  0.32708035    -0.43600
N152        N  0.10156387  0.38206144  0.41021955    -0.43600
C153        C  0.99551896  0.33369305  0.15115425    -0.00100
C154        C  0.96383916  0.35316744  0.13478664    -0.11900
C155        C  0.96294107  0.35296317  0.10259618     0.02200
C156        C  0.99427970  0.33291825  0.08619012    -0.00100
C157        C  0.02544294  0.31283254  0.10258795    -0.11900
C158        C  0.02609123  0.31262577  0.13468328     0.02100
H159        H  0.94014311  0.36934845  0.14715463     0.15100
H160        H  0.04914627  0.29661307  0.09025872     0.15100
C161        C  0.05748339  0.28895270  0.15000330     0.36700
C162        C  0.93052013  0.37502499  0.08710779     0.36600
N163        N  0.08245489  0.26980120  0.16231373    -0.43600
N164        N  0.90458225  0.39269896  0.07465470    -0.43600
C165        C  0.99539061  0.12710317  0.24746690    -0.00100
C166        C  0.01729767  0.15000425  0.26949916    -0.11900
C167        C  0.01730697  0.19285336  0.26879489     0.02200
C168        C  0.99478329  0.21366707  0.24590257    -0.00100
C169        C  0.97169803  0.19104411  0.22447709    -0.11900
C170        C  0.97201617  0.14808085  0.22492189     0.02100
H171        H  0.03495588  0.13439521  0.28712794     0.15100
H172        H  0.95391853  0.20697271  0.20707336     0.15100
C173        C  0.94712732  0.12641399  0.20258341     0.36700
C174        C  0.03950959  0.21494200  0.29244953     0.36600
N175        N  0.92715139  0.10899644  0.18473419    -0.43600
N176        N  0.05702505  0.23292098  0.31138288    -0.43600
C177        C  0.99727995  0.20909176  0.99484237    -0.00100
C178        C  0.97173737  0.18891927  0.47331169    -0.11900
C179        C  0.96998594  0.14601017  0.47276474     0.02200
C180        C  0.99399751  0.12262841  0.99471516    -0.00100
C181        C  0.01999265  0.14358359  0.01528595    -0.11900
C182        C  0.02219031  0.18641243  0.01528485     0.02100
H183        H  0.95284924  0.20630926  0.45742518     0.15100
H184        H  0.03919325  0.12639472  0.03109016     0.15100
C185        C  0.04934094  0.20623901  0.03711165     0.36700
C186        C  0.94218185  0.12634511  0.45132306     0.36600
N187        N  0.07116803  0.22196434  0.05463063    -0.43600
N188        N  0.91989210  0.11063710  0.43412055    -0.43600
C189        C  0.79168083  0.99580198  0.25748522    -0.00100
C190        C  0.81270288  0.96807299  0.23876891    -0.11900
C191        C  0.85560499  0.96875745  0.23732538     0.02200
C192        C  0.87814965  0.99728016  0.25513953    -0.00100
C193        C  0.85721953  0.02376854  0.27487253    -0.11900
C194        C  0.81432382  0.02343290  0.27604874     0.02100
H195        H  0.79554761  0.94641157  0.22474255     0.15100
H196        H  0.87440113  0.04530753  0.28899167     0.15100
C197        C  0.79430802  0.05093322  0.29709702     0.36700
C198        C  0.87582522  0.93909427  0.21813872     0.36600
N199        N  0.77807431  0.07280067  0.31396645    -0.43600
N200        N  0.89212014  0.91527165  0.20287084    -0.43600
C201        C  0.66397152  0.99441917  0.41277434    -0.00100
C202        C  0.65410992  0.03061027  0.39704238    -0.11900
C203        C  0.65519264  0.03264180  0.36501019     0.02200
C204        C  0.66629672  0.99768728  0.34777668    -0.00100
C205        C  0.67656638  0.96156498  0.36352823    -0.11900
C206        C  0.67582085  0.95965619  0.39561574     0.02100
H207        H  0.64503553  0.05757051  0.40980452     0.15100
H208        H  0.68580749  0.93467138  0.35075953     0.15100
C209        C  0.68878285  0.92198427  0.41004621     0.36700
C210        C  0.64379509  0.07092097  0.35076847     0.36600
N211        N  0.69930426  0.89179377  0.42151092    -0.43600
N212        N  0.63473037  0.10168011  0.33946559    -0.43600
C213        C  0.66661964  0.99387551  0.09770833    -0.00100
C214        C  0.65909995  0.03086426  0.11310918    -0.11900
C215        C  0.65973025  0.03315424  0.14515773     0.02200
C216        C  0.66815826  0.99769984  0.16277989    -0.00100
C217        C  0.67586927  0.96073961  0.14739224    -0.11900
C218        C  0.67532324  0.95847039  0.11532496     0.02100
H219        H  0.65223068  0.05832778  0.10008343     0.15100
H220        H  0.68274637  0.93330102  0.16044724     0.15100
C221        C  0.68469749  0.91944188  0.10150127     0.36700
C222        C  0.65068457  0.07228012  0.15895774     0.36600
N223        N  0.69225695  0.88808885  0.09058053    -0.43600
N224        N  0.64345405  0.10371729  0.16987088    -0.43600
C225        C  0.78702366  0.99366111  0.00353117    -0.00100
C226        C  0.80316831  0.97920294  0.47657851    -0.11900
C227        C  0.84574828  0.98172489  0.47323475     0.02200
C228        C  0.87310281  0.99531276  0.99774819    -0.00100
C229        C  0.85347280  0.02192709  0.01812342    -0.11900
C230        C  0.81081151  0.02156310  0.02099149     0.02100
H231        H  0.78431662  0.96762932  0.45780316     0.15100
H232        H  0.87157874  0.04328019  0.03176152     0.15100
C233        C  0.79241278  0.04916314  0.04278329     0.36700
C234        C  0.86269351  0.96899027  0.44426495     0.36600
N235        N  0.77770532  0.07122572  0.06029099    -0.43600
N236        N  0.87563798  0.95930305  0.42070080    -0.43600
C237        C  0.00763508  0.54724237  0.24807705    -0.00100
C238        C  0.97163610  0.52787548  0.23734677    -0.11900
C239        C  0.96857358  0.48516476  0.23533480     0.02200
C240        C  0.00200717  0.46041529  0.24447091    -0.00100
C241        C  0.03818763  0.47974130  0.25490691    -0.11900
C242        C  0.04131889  0.52251970  0.25680656     0.02100
H243        H  0.94567906  0.54621244  0.23004990     0.15100
H244        H  0.06411743  0.46132602  0.26214420     0.15100
C245        C  0.07915065  0.53975995  0.26863022     0.36700
C246        C  0.93111392  0.46796923  0.22281576     0.36600
N247        N  0.10957802  0.55334540  0.27809772    -0.43600
N248        N  0.90107879  0.45435172  0.21268801    -0.43600
C249        C  0.00832908  0.79403627  0.25235858    -0.00100
C250        C  0.02927241  0.81577017  0.27547672    -0.11900
C251        C  0.02820792  0.85870404  0.27642343     0.02200
C252        C  0.00640061  0.88056329  0.25351064    -0.00100
C253        C  0.98639018  0.85857903  0.22998901    -0.11900
C254        C  0.98693972  0.81577543  0.22936181     0.02100
H255        H  0.04602044  0.79912258  0.29306969     0.15100
H256        H  0.96995319  0.87487922  0.21206717     0.15100
C257        C  0.96659712  0.79487785  0.20422134     0.36700
C258        C  0.05081436  0.87938477  0.30055519     0.36600
N259        N  0.95046456  0.77811409  0.18402244    -0.43600
N260        N  0.06897304  0.89585830  0.31992230    -0.43600
C261        C  0.00502612  0.54310372  0.00003248    -0.00100
C262        C  0.97030478  0.52347035  0.49228127    -0.11900
C263        C  0.96810505  0.48081964  0.48999395     0.02200
C264        C  0.00049935  0.45613836  0.99559477    -0.00100
C265        C  0.03823924  0.47625721  0.00068718    -0.11900
C266        C  0.04089523  0.51903247  0.00278999     0.02100
H267        H  0.94268815  0.54099750  0.48793732     0.15100
H268        H  0.06610064  0.45852283  0.00318612     0.15100
C269        C  0.08099541  0.53686608  0.00792404     0.36700
C270        C  0.92892163  0.46311978  0.48152728     0.36600
N271        N  0.11326059  0.55092409  0.01193014    -0.43600
N272        N  0.89743224  0.44919042  0.47469612    -0.43600
C273        C  0.00153936  0.66693558  0.40905929    -0.00100
C274        C  0.03646341  0.65237341  0.39396043    -0.11900
C275        C  0.03871566  0.65190215  0.36191045     0.02200
C276        C  0.00556488  0.66677067  0.34401966    -0.00100
C277        C  0.97027345  0.68067280  0.35911436    -0.11900
C278        C  0.96794759  0.68089914  0.39123926     0.02100
H279        H  0.06217499  0.64080887  0.40728130     0.15100
H280        H  0.94455429  0.69220526  0.34579807     0.15100
C281        C  0.93131614  0.69708373  0.40508738     0.36700
C282        C  0.07504818  0.63475530  0.34828514     0.36600
N283        N  0.90192573  0.71007069  0.41611315    -0.43600
N284        N  0.10421598  0.62089265  0.33754025    -0.43600
C285        C  0.00754994  0.66837621  0.09404433    -0.00100
C286        C  0.04016684  0.68841658  0.10924009    -0.11900
C287        C  0.04172379  0.69087175  0.14138872     0.02200
C288        C  0.01056211  0.67221137  0.15900022    -0.00100
C289        C  0.97831980  0.65176759  0.14377263    -0.11900
C290        C  0.97658202  0.64960182  0.11173381     0.02100
H291        H  0.06413060  0.70300152  0.09594567     0.15100
H292        H  0.95455310  0.63671827  0.15700122     0.15100
C293        C  0.94357027  0.62631030  0.09780552     0.36700
C294        C  0.07450953  0.71432464  0.15548038     0.36600
N295        N  0.91718688  0.60751897  0.08667309    -0.43600
N296        N  0.10068230  0.73335378  0.16667713    -0.43600
C297        C  0.00238423  0.78962600  0.99939688    -0.00100
C298        C  0.97250450  0.80951466  0.47958734    -0.11900
C299        C  0.97061490  0.85226928  0.47774063     0.02200
C300        C  0.99959255  0.87596607  0.99575094    -0.00100
C301        C  0.01261291  0.85631385  0.02286623    -0.11900
C302        C  0.01437748  0.81361317  0.02475317     0.02100
H303        H  0.95459650  0.79097781  0.46366530     0.15100
H304        H  0.02176972  0.87431318  0.04271903     0.15100
C305        C  0.02759032  0.79509776  0.05322494     0.36700
C306        C  0.94366370  0.86999126  0.45497708     0.36600
N307        N  0.03811316  0.78050966  0.07615908    -0.43600
N308        N  0.92190605  0.88349870  0.43652037    -0.43600
C309        C  0.54456108  0.00021071  0.25289931    -0.04100
C310        C  0.52339164  0.96437888  0.24420642    -0.11900
C311        C  0.48048455  0.96308865  0.24272485     0.02200
C312        C  0.45743308  0.99790204  0.25112115    -0.00100
C313        C  0.47858305  0.03396468  0.25924248    -0.11900
C314        C  0.52150112  0.03564106  0.25985005     0.02100
H315        H  0.54043719  0.93727284  0.23785264     0.15100
H316        H  0.46154242  0.06119101  0.26531099     0.15100
C317        C  0.54053963  0.07428400  0.26781450     0.36700
C318        C  0.46138758  0.92617662  0.23104833     0.36600
N319        N  0.55555321  0.10545607  0.27392796    -0.43600
N320        N  0.44622923  0.89671124  0.22137028    -0.43600
C321        C  0.12402832  0.00414950  0.24775045    -0.00100
C322        C  0.14383494  0.97661387  0.26760009    -0.11900
C323        C  0.18661137  0.97393725  0.26848761     0.02200
C324        C  0.21039434  0.00001321  0.24983659    -0.00100
C325        C  0.19059083  0.02753296  0.22989529    -0.11900
C326        C  0.14767361  0.02932685  0.22835389     0.02100
H327        H  0.12576735  0.95692977  0.28235416     0.15100
H328        H  0.20870509  0.04742069  0.21530508     0.15100
C329        C  0.12876054  0.05811546  0.20750291     0.36700
C330        C  0.20523810  0.94520327  0.28953905     0.36600
N331        N  0.11362159  0.08113348  0.19073988    -0.43600
N332        N  0.22014146  0.92211477  0.30636170    -0.43600
C333        C  0.45282411  0.99474602  0.00398134    -0.00100
C334        C  0.47460410  0.03059365  0.99657858    -0.11900
C335        C  0.51751284  0.03160536  0.99659124     0.02200
C336        C  0.54004450  0.99604049  0.00438652    -0.00100
C337        C  0.51654786  0.96191864  0.51202689    -0.11900
C338        C  0.47361253  0.96071950  0.51218143     0.02100
H339        H  0.45805183  0.05811930  0.99030607     0.15100
H340        H  0.53326710  0.93425257  0.51765199     0.15100
C341        C  0.45419060  0.92263730  0.52084655     0.36700
C342        C  0.53711167  0.06950413  0.98766483     0.36600
N343        N  0.43891115  0.89204550  0.52795171    -0.43600
N344        N  0.55263711  0.09993933  0.98047768    -0.43600
C345        C  0.32976839  0.00012999  0.40927286    -0.00100
C346        C  0.34859614  0.96743431  0.39398283    -0.11900
C347        C  0.35078930  0.96637430  0.36188168     0.02200
C348        C  0.33364927  0.99851561  0.34426610    -0.00100
C349        C  0.31506680  0.03134177  0.35957276    -0.11900
C350        C  0.31273400  0.03231734  0.39166919     0.02100
H351        H  0.36222370  0.94276471  0.40719017     0.15100
H352        H  0.30135168  0.05596986  0.34637488     0.15100
C353        C  0.29090257  0.06575145  0.40569023     0.36700
C354        C  0.37205975  0.93257989  0.34785040     0.36600
N355        N  0.27322413  0.09246013  0.41687089    -0.43600
N356        N  0.38917120  0.90549846  0.33667205    -0.43600
C357        C  0.32875346  0.99701915  0.09429475    -0.00100
C358        C  0.34837039  0.02949648  0.10976991    -0.11900
C359        C  0.35064853  0.03058555  0.14184004     0.02200
C360        C  0.33274756  0.99873082  0.15923272    -0.00100
C361        C  0.31317346  0.96620692  0.14379523    -0.11900
C362        C  0.31082786  0.96516161  0.11168794     0.02100
H363        H  0.36270216  0.05391767  0.09674205     0.15100
H364        H  0.29886471  0.94182608  0.15687897     0.15100
C365        C  0.28837897  0.93189877  0.09742820     0.36700
C366        C  0.37291711  0.06400042  0.15609191     0.36600
N367        N  0.27025436  0.90528620  0.08606234    -0.43600
N368        N  0.39081212  0.09072267  0.16751802    -0.43600
C369        C  0.20576225  0.00260075  0.99899633    -0.00100
C370        C  0.18293295  0.97426161  0.47885890    -0.11900
C371        C  0.14000902  0.97399095  0.47694922     0.02200
C372        C  0.11930177  0.00252771  0.99497990    -0.00100
C373        C  0.13981467  0.02855129  0.01574638    -0.11900
C374        C  0.18269989  0.02898260  0.01778294     0.02100
H375        H  0.20033704  0.95381186  0.46434516     0.15100
H376        H  0.12222806  0.04850221  0.03053146     0.15100
C377        C  0.20207693  0.05518096  0.04041513     0.36700
C378        C  0.12017494  0.94481419  0.45672898     0.36600
N379        N  0.21751170  0.07604886  0.05867181    -0.43600
N380        N  0.10418713  0.92127488  0.44070585    -0.43600
O381        O  0.32451879  0.96385150  0.54541620    -0.74300
O382        O  0.32909045  0.96585594  0.95738182    -0.74400
O383        O  0.38483357  0.96335311  0.50313892    -0.74400
O384        O  0.26906050  0.96668011  0.99975735    -0.74500
O385        O  0.26907373  0.03379582  0.50151544    -0.74400
O386        O  0.38897755  0.03068395  0.00292980    -0.74400
O387        O  0.33042591  0.03405590  0.95847284    -0.74300
O388        O  0.32729472  0.03199045  0.54605752    -0.74400
Ni389      Ni  0.32613846  0.96207614  0.50140609     1.25400
Ni390      Ni  0.33037077  0.03528123  0.00242240     1.25400
C391        C  0.32575223  0.99770831  0.56028656     0.87900
C392        C  0.32979440  0.00037905  0.94340841     0.87800
C393        C  0.40520654  0.99696851  0.50375766     0.87800
C394        C  0.24897736  0.00001517  0.50026465     0.88000
O395        O  0.33198238  0.96582963  0.70789188    -0.74300
O396        O  0.33269910  0.96573839  0.79572807    -0.74400
O397        O  0.27377826  0.96596760  0.75164321    -0.74400
O398        O  0.39096526  0.96556112  0.75200707    -0.74500
O399        O  0.39187236  0.03362753  0.75254146    -0.74400
O400        O  0.27441740  0.03426418  0.75088482    -0.74400
O401        O  0.33258865  0.03394314  0.79587213    -0.74300
O402        O  0.33350206  0.03401043  0.70800093    -0.74400
Ni403      Ni  0.33234834  0.96336337  0.75182958     1.25400
Ni404      Ni  0.33313280  0.03641035  0.75187143     1.25400
C405        C  0.33260963  0.99997517  0.69340853     0.87900
C406        C  0.33288991  0.99976771  0.81033798     0.87800
C407        C  0.25481494  0.00017923  0.75091615     0.87800
C408        C  0.41095763  0.99939527  0.75225843     0.88000
O409        O  0.03948516  0.66910638  0.54519091    -0.74300
O410        O  0.03726334  0.66728902  0.95732930    -0.74400
O411        O  0.03514732  0.72772126  0.50162844    -0.74400
O412        O  0.03928305  0.60882948  0.00127855    -0.74500
O413        O  0.97201587  0.60764818  0.50209470    -0.74400
O414        O  0.96932399  0.72487818  0.00088464    -0.74400
O415        O  0.96897567  0.66553425  0.95785502    -0.74300
O416        O  0.97117757  0.66648471  0.54589719    -0.74400
Ni417      Ni  0.04022065  0.66919282  0.50127863     1.25400
Ni418      Ni  0.96789875  0.66632381  0.00180580     1.25400
C419        C  0.00579337  0.66781614  0.56005935     0.87900
C420        C  0.00274484  0.66646625  0.94304040     0.87800
C421        C  0.00008088  0.74530228  0.50159054     0.87800
C422        C  0.00536195  0.58880171  0.00148457     0.88000
O423        O  0.04398350  0.67348268  0.70806253    -0.74300
O424        O  0.04163756  0.66939141  0.79589869    -0.74400
O425        O  0.04269391  0.61269272  0.75048191    -0.74400
O426        O  0.04287417  0.73023068  0.75362740    -0.74500
O427        O  0.97447563  0.72968966  0.75107874    -0.74400
O428        O  0.97442178  0.61259823  0.74994872    -0.74400
O429        O  0.97336651  0.67020203  0.79463258    -0.74300
O430        O  0.97562671  0.67182988  0.70686431    -0.74400
Ni431      Ni  0.04526443  0.67149029  0.75208795     1.25400
Ni432      Ni  0.97207329  0.67112459  0.75063396     1.25400
C433        C  0.01008886  0.67287308  0.69296183     0.87900
C434        C  0.00717562  0.66889248  0.80981739     0.87800
C435        C  0.00846890  0.59316671  0.74970717     0.87800
C436        C  0.00860074  0.74921667  0.75236109     0.88000
O437        O  0.66362284  0.02932208  0.54895746    -0.74300
O438        O  0.66432131  0.02815895  0.96139662    -0.74400
O439        O  0.60441514  0.03058249  0.50503914    -0.74400
O440        O  0.72295086  0.02771553  0.00534832    -0.74500
O441        O  0.71964964  0.95951588  0.50451267    -0.74400
O442        O  0.60450468  0.96081149  0.00526781    -0.74400
O443        O  0.66266555  0.96005876  0.96129865    -0.74300
O444        O  0.66233172  0.96120002  0.54908401    -0.74400
Ni445      Ni  0.66304030  0.03154290  0.50511738     1.25400
Ni446      Ni  0.66332267  0.95756892  0.00505134     1.25400
C447        C  0.66396632  0.99528111  0.56357160     0.87900
C448        C  0.66389989  0.99407517  0.94678823     0.87800
C449        C  0.58382323  0.99712835  0.50530505     0.87800
C450        C  0.73959866  0.99337099  0.50464613     0.88000
O451        O  0.66935542  0.03358858  0.71156133    -0.74300
O452        O  0.66826122  0.03300381  0.79913202    -0.74400
O453        O  0.72730128  0.03204062  0.75627179    -0.74400
O454        O  0.61017030  0.03469554  0.75461057    -0.74500
O455        O  0.60828267  0.96664784  0.75459912    -0.74400
O456        O  0.72576914  0.96377015  0.75535661    -0.74400
O457        O  0.66686974  0.96490789  0.79891875    -0.74300
O458        O  0.66709574  0.96550856  0.71115293    -0.74400
Ni459      Ni  0.66885026  0.03572270  0.75538303     1.25400
Ni460      Ni  0.66694280  0.96274203  0.75500202     1.25400
C461        C  0.66819509  0.99972665  0.69678765     0.87900
C462        C  0.66725032  0.99893208  0.81359252     0.87800
C463        C  0.74582627  0.99758295  0.75625834     0.87800
C464        C  0.58968506  0.00116485  0.75441605     0.88000
O465        O  0.93644877  0.99653946  0.97039584    -0.74300
O466        O  0.05414525  0.00125174  0.96924493    -0.74400
O467        O  0.99728034  0.94071643  0.96977210    -0.74400
O468        O  0.99313852  0.05774714  0.96944447    -0.74500
O469        O  0.99420100  0.05943397  0.52023289    -0.74400
O470        O  0.99508454  0.94220333  0.52246927    -0.74400
O471        O  0.05301493  0.00177609  0.52115389    -0.74300
O472        O  0.93606513  0.99996287  0.52181939    -0.74400
Ni473      Ni  0.99520912  0.99912971  0.96785924     1.25400
Ni474      Ni  0.99459474  0.00091515  0.52321213     1.25400
C475        C  0.91580006  0.99860318  0.49651734     0.87900
C476        C  0.07181917  0.00032704  0.49551511     0.87800
C477        C  0.99368822  0.92191880  0.49727218     0.87800
C478        C  0.99348051  0.07783551  0.49425128     0.88000
O479        O  0.94023579  0.99976767  0.72750729    -0.74300
O480        O  0.05736676  0.00588598  0.72361394    -0.74400
O481        O  0.00153654  0.94458576  0.72689133    -0.74400
O482        O  0.99571712  0.06151256  0.72412302    -0.74500
O483        O  0.00061748  0.06397583  0.77517503    -0.74400
O484        O  0.00381774  0.94655994  0.77805216    -0.74400
O485        O  0.06051820  0.00641813  0.77483379    -0.74300
O486        O  0.94349477  0.00366143  0.77863027    -0.74400
Ni487      Ni  0.99860317  0.00294112  0.72371422     1.25400
Ni488      Ni  0.00221154  0.00532883  0.77850556     1.25400
C489        C  0.92263670  0.00052721  0.75369101     0.87900
C490        C  0.07817683  0.00607300  0.74869331     0.87800
C491        C  0.00377789  0.92624463  0.75285686     0.87800
C492        C  0.99704798  0.08208701  0.74915852     0.88000
O493        O  0.96443630  0.33294994  0.53629670    -0.74300
O494        O  0.96691024  0.33254619  0.94886250    -0.74400
O495        O  0.96541071  0.27475298  0.49186071    -0.74400
O496        O  0.96550335  0.39105211  0.99296639    -0.74500
O497        O  0.03645354  0.39113959  0.49505994    -0.74400
O498        O  0.03240971  0.27340647  0.99535351    -0.74400
O499        O  0.03519092  0.33199324  0.95102621    -0.74300
O500        O  0.03271974  0.33216393  0.53875226    -0.74400
Ni501      Ni  0.96439178  0.33343227  0.49236487     1.25400
Ni502      Ni  0.03543517  0.33203233  0.99512845     1.25400
C503        C  0.99776777  0.33277514  0.55203678     0.87900
C504        C  0.00170019  0.33244078  0.93540222     0.87800
C505        C  0.99915609  0.25491861  0.49344447     0.87800
C506        C  0.00268577  0.41109628  0.49428357     0.88000
O507        O  0.03111285  0.33525816  0.69981985    -0.74300
O508        O  0.03266027  0.33672863  0.78762567    -0.74400
O509        O  0.03006497  0.27768902  0.74452411    -0.74400
O510        O  0.03367994  0.39483795  0.74324661    -0.74500
O511        O  0.96544936  0.39652299  0.74388047    -0.74400
O512        O  0.96163404  0.27904615  0.74333296    -0.74400
O513        O  0.96432990  0.33715569  0.78763192    -0.74300
O514        O  0.96284243  0.33797377  0.69956823    -0.74400
Ni515      Ni  0.03427325  0.33614981  0.74372493     1.25400
Ni516      Ni  0.96109768  0.33784196  0.74359688     1.25400
C517        C  0.99688803  0.33577629  0.68516343     0.87900
C518        C  0.99868174  0.33614227  0.80216793     0.87800
C519        C  0.99536445  0.25912906  0.74449365     0.87800
C520        C  0.00015755  0.41516286  0.74357942     0.88000
C521        C  0.99941481  0.33414823  0.83623066    -0.00100
C522        C  0.03340591  0.35038929  0.85224383    -0.11900
C523        C  0.03528452  0.34978455  0.88441844     0.02200
C524        C  0.00256524  0.33259934  0.90131179    -0.00100
C525        C  0.96902450  0.31561142  0.88524524    -0.11900
C526        C  0.96732560  0.31586698  0.85312894     0.02100
H527        H  0.05837997  0.36432510  0.83959873     0.15100
H528        H  0.94410438  0.30149342  0.89784510     0.15100
C529        C  0.93310936  0.29548257  0.83827450     0.36700
C530        C  0.07041496  0.36845884  0.89932854     0.36600
N531        N  0.90578771  0.27891040  0.82643887    -0.43600
N532        N  0.09858743  0.38344236  0.91123938    -0.43600
C533        C  0.99674709  0.33374343  0.65111462    -0.00100
C534        C  0.96478575  0.35249347  0.63456738    -0.11900
C535        C  0.96417677  0.35233804  0.60236789     0.02200
C536        C  0.99612881  0.33309211  0.58605532    -0.00100
C537        C  0.02763180  0.31375221  0.60262206    -0.11900
C538        C  0.02798755  0.31348494  0.63474731     0.02100
H539        H  0.94056904  0.36806405  0.64680913     0.15100
H540        H  0.05184144  0.29813584  0.59040782     0.15100
C541        C  0.05983112  0.29056424  0.65018752     0.36700
C542        C  0.93127345  0.37357714  0.58679402     0.36600
N543        N  0.08517321  0.27200612  0.66258982    -0.43600
N544        N  0.90494000  0.39056299  0.57426164    -0.43600
C545        C  0.99490141  0.12745474  0.74806057    -0.00100
C546        C  0.01704961  0.15030297  0.76999215    -0.11900
C547        C  0.01722605  0.19316322  0.76924272     0.02200
C548        C  0.99453253  0.21402286  0.74645560    -0.00100
C549        C  0.97115798  0.19143755  0.72518838    -0.11900
C550        C  0.97139605  0.14848627  0.72562719     0.02100
H551        H  0.03483118  0.13464247  0.78752541     0.15100
H552        H  0.95326956  0.20739021  0.70785940     0.15100
C553        C  0.94639413  0.12688801  0.70332416     0.36700
C554        C  0.03987160  0.21519879  0.79269280     0.36600
N555        N  0.92635891  0.10953951  0.68547498    -0.43600
N556        N  0.05778693  0.23311681  0.81145136    -0.43600
C557        C  0.99805078  0.20965068  0.49380331    -0.00100
C558        C  0.97059443  0.18817846  0.97476031    -0.11900
C559        C  0.96908805  0.14531626  0.97427555     0.02200
C560        C  0.99418591  0.12313580  0.49358406    -0.00100
C561        C  0.01984480  0.14394876  0.51446598    -0.11900
C562        C  0.02233856  0.18675427  0.51450577     0.02100
H563        H  0.95122074  0.20540546  0.95910123     0.15100
H564        H  0.03848707  0.12664877  0.53057316     0.15100
C565        C  0.04909437  0.20638840  0.53669289     0.36700
C566        C  0.94084560  0.12550196  0.95324108     0.36600
N567        N  0.07058926  0.22203477  0.55447635    -0.43600
N568        N  0.91818932  0.10969179  0.93636477    -0.43600
C569        C  0.79107159  0.99706114  0.75710202    -0.00100
C570        C  0.81200538  0.96962769  0.73809818    -0.11900
C571        C  0.85490666  0.97006305  0.73681517     0.02200
C572        C  0.87751612  0.99797188  0.75513403    -0.00100
C573        C  0.85663908  0.02418401  0.77510282    -0.11900
C574        C  0.81374358  0.02415177  0.77607314     0.02100
H575        H  0.79478644  0.94841020  0.72373463     0.15100
H576        H  0.87386204  0.04530789  0.78954367     0.15100
C577        C  0.79372267  0.05141063  0.79729521     0.36700
C578        C  0.87504198  0.94083141  0.71720337     0.36600
N579        N  0.77743723  0.07308839  0.81427325    -0.43600
N580        N  0.89129234  0.91739467  0.70157606    -0.43600
C581        C  0.66494455  0.99437044  0.91270830    -0.00100
C582        C  0.65751719  0.03145634  0.89736339    -0.11900
C583        C  0.65813422  0.03391768  0.86533797     0.02200
C584        C  0.66653182  0.99855417  0.84768946    -0.00100
C585        C  0.67417618  0.96148823  0.86303532    -0.11900
C586        C  0.67352974  0.95901821  0.89508180     0.02100
H587        H  0.65071629  0.05885295  0.91041389     0.15100
H588        H  0.68101574  0.93411467  0.84997069     0.15100
C589        C  0.68257874  0.91981710  0.90887747     0.36700
C590        C  0.64904470  0.07311791  0.85158002     0.36600
N591        N  0.68980755  0.88831813  0.91977635    -0.43600
N592        N  0.64172822  0.10459613  0.84068672    -0.43600
C593        C  0.66618200  0.99575496  0.59764140    -0.00100
C594        C  0.65858449  0.03274708  0.61300511    -0.11900
C595        C  0.65976162  0.03519201  0.64504289     0.02200
C596        C  0.66809883  0.99972984  0.66267966    -0.00100
C597        C  0.67646200  0.96290294  0.64729727    -0.11900
C598        C  0.67612217  0.96067721  0.61522994     0.02100
H599        H  0.65140092  0.06011315  0.59995927     0.15100
H600        H  0.68392188  0.93561706  0.66035319     0.15100
C601        C  0.68761693  0.92228131  0.60133087     0.36700
C602        C  0.65186537  0.07458995  0.65880987     0.36600
N603        N  0.69711854  0.89153758  0.59031258    -0.43600
N604        N  0.64579090  0.10629534  0.66969670    -0.43600
C605        C  0.78439910  0.99299523  0.50339704    -0.00100
C606        C  0.80668450  0.96643102  0.98360299    -0.11900
C607        C  0.84939277  0.96726300  0.98038683     0.02200
C608        C  0.87036855  0.99699650  0.49770351    -0.00100
C609        C  0.85108370  0.01033506  0.52471671    -0.11900
C610        C  0.80845719  0.00895447  0.52753928     0.02100
H611        H  0.78856824  0.94491055  0.97012847     0.15100
H612        H  0.86926909  0.02244333  0.54363566     0.15100
C613        C  0.79004089  0.02361438  0.55551819     0.36700
C614        C  0.86805000  0.93802088  0.96004139     0.36600
N615        N  0.77521182  0.03535328  0.57789765    -0.43600
N616        N  0.88256862  0.91432399  0.94370325    -0.43600
C617        C  0.00758651  0.54758198  0.74799342    -0.00100
C618        C  0.97168817  0.52826533  0.73702309    -0.11900
C619        C  0.96862356  0.48555840  0.73493396     0.02200
C620        C  0.00195465  0.46077165  0.74423559    -0.00100
C621        C  0.03805230  0.48006507  0.75487140    -0.11900
C622        C  0.04117955  0.52283314  0.75685054     0.02100
H623        H  0.94581792  0.54664260  0.72960709     0.15100
H624        H  0.06390557  0.46163073  0.76223499     0.15100
C625        C  0.07888270  0.54003781  0.76892896     0.36700
C626        C  0.93126684  0.46841930  0.72219769     0.36600
N627        N  0.10920930  0.55358589  0.77860639    -0.43600
N628        N  0.90130046  0.45488190  0.71189449    -0.43600
C629        C  0.00816828  0.79438694  0.75203581    -0.00100
C630        C  0.02950784  0.81614743  0.77493897    -0.11900
C631        C  0.02829064  0.85907058  0.77596816     0.02200
C632        C  0.00588674  0.88090161  0.75336901    -0.00100
C633        C  0.98551475  0.85892095  0.73002560    -0.11900
C634        C  0.98625359  0.81611864  0.72930194     0.02100
H635        H  0.04667617  0.79952543  0.79231729     0.15100
H636        H  0.96864323  0.87522597  0.71233120     0.15100
C637        C  0.96555500  0.79524229  0.70431523     0.36700
C638        C  0.05136436  0.87978243  0.79983879     0.36600
N639        N  0.94913675  0.77853367  0.68421827    -0.43600
N640        N  0.06991190  0.89626514  0.81899573    -0.43600
C641        C  0.00722686  0.54382199  0.49955014    -0.00100
C642        C  0.96733549  0.52296905  0.99486530    -0.11900
C643        C  0.96473022  0.48028910  0.99241248     0.02200
C644        C  0.00353411  0.45682567  0.49532631    -0.00100
C645        C  0.04066880  0.47714227  0.50235281    -0.11900
C646        C  0.04287432  0.52001964  0.50446537     0.02100
H647        H  0.93946738  0.54066807  0.99224120     0.15100
H648        H  0.06822583  0.45948579  0.50657321     0.15100
C649        C  0.08202803  0.53829126  0.51226097     0.36700
C650        C  0.92481778  0.46271964  0.98598878     0.36600
N651        N  0.11350903  0.55273769  0.51848478    -0.43600
N652        N  0.89278062  0.44885412  0.98072184    -0.43600
C653        C  0.00242801  0.66639740  0.90894980    -0.00100
C654        C  0.03731861  0.65208581  0.89367360    -0.11900
C655        C  0.03945521  0.65206021  0.86161600     0.02200
C656        C  0.00619019  0.66707052  0.84390497    -0.00100
C657        C  0.97099416  0.68083371  0.85916860    -0.11900
C658        C  0.96880977  0.68068976  0.89128998     0.02100
H659        H  0.06310142  0.64039018  0.90684847     0.15100
H660        H  0.94522373  0.69252490  0.84598755     0.15100
C661        C  0.93226630  0.69682802  0.90529743     0.36700
C662        C  0.07579769  0.63521963  0.84779041     0.36600
N663        N  0.90296227  0.70977944  0.91647273    -0.43600
N664        N  0.10497802  0.62162128  0.83687669    -0.43600
C665        C  0.00701497  0.66829319  0.59407683    -0.00100
C666        C  0.03910957  0.68923876  0.60919702    -0.11900
C667        C  0.04087881  0.69143220  0.64133418     0.02200
C668        C  0.01017498  0.67208267  0.65897193    -0.00100
C669        C  0.97843701  0.65078001  0.64382594    -0.11900
C670        C  0.97673146  0.64849098  0.61179497     0.02100
H671        H  0.06255294  0.70457940  0.59586419     0.15100
H672        H  0.95514660  0.63508947  0.65711525     0.15100
C673        C  0.94461010  0.62396786  0.59788951     0.36700
C674        C  0.07354147  0.71506830  0.65541871     0.36600
N675        N  0.91900177  0.60414333  0.58675209    -0.43600
N676        N  0.09968710  0.73410716  0.66664156    -0.43600
C677        C  0.99791107  0.79035738  0.50130354    -0.00100
C678        C  0.98912606  0.80874272  0.97234718    -0.11900
C679        C  0.98812237  0.85151855  0.97008548     0.02200
C680        C  0.99393532  0.87662965  0.49837252    -0.00100
C681        C  0.01827938  0.85727083  0.52075498    -0.11900
C682        C  0.02065521  0.81453371  0.52222386     0.02100
H683        H  0.97998831  0.79011540  0.95278749     0.15100
H684        H  0.03600819  0.87560336  0.53690186     0.15100
C685        C  0.04547082  0.79620568  0.54608077     0.36700
C686        C  0.97506031  0.86893541  0.94115167     0.36600
N687        N  0.06523996  0.78156031  0.56529625    -0.43600
N688        N  0.96489715  0.88253855  0.91776905    -0.43600
C689        C  0.54394559  0.00184066  0.75377951    -0.04100
C690        C  0.52274379  0.96475579  0.74906827    -0.11900
C691        C  0.47986683  0.96311732  0.74796221     0.02200
C692        C  0.45669669  0.99920319  0.75238482    -0.00100
C693        C  0.47786470  0.03636815  0.75692660    -0.11900
C694        C  0.52081097  0.03814281  0.75739582     0.02100
H695        H  0.53971875  0.93665872  0.74569862     0.15100
H696        H  0.46083537  0.06447064  0.76011304     0.15100
C697        C  0.53975365  0.07786867  0.76151713     0.36700
C698        C  0.46104105  0.92396591  0.74122794     0.36600
N699        N  0.55469207  0.10984552  0.76461347    -0.43600
N700        N  0.44614783  0.89257602  0.73560931    -0.43600
C701        C  0.12328220  0.00431734  0.74787004    -0.00100
C702        C  0.14317511  0.97669516  0.76759193    -0.11900
C703        C  0.18594820  0.97405028  0.76834854     0.02200
C704        C  0.20960415  0.00045352  0.74984652    -0.00100
C705        C  0.18969940  0.02791295  0.72993904    -0.11900
C706        C  0.14679925  0.02948063  0.72838104     0.02100
H707        H  0.12518093  0.95686403  0.78228480     0.15100
H708        H  0.20772540  0.04787192  0.71534088     0.15100
C709        C  0.12777314  0.05787475  0.70728560     0.36700
C710        C  0.20466584  0.94483821  0.78898374     0.36600
N711        N  0.11254484  0.08049781  0.69026603    -0.43600
N712        N  0.21959929  0.92127876  0.80541793    -0.43600
C713        C  0.45090013  0.99634303  0.50490513    -0.00100
C714        C  0.47247364  0.03267023  0.49844827    -0.11900
C715        C  0.51540732  0.03400422  0.49865080     0.02200
C716        C  0.53812706  0.99813277  0.50524857    -0.00100
C717        C  0.51829626  0.96014538  0.01177851    -0.11900
C718        C  0.47531160  0.95913604  0.01171953     0.02100
H719        H  0.45575569  0.06036530  0.49290412     0.15100
H720        H  0.53491532  0.93263958  0.01799353     0.15100
C721        C  0.45556573  0.92124357  0.02043830     0.36700
C722        C  0.53480228  0.07269449  0.49155222     0.36600
N723        N  0.43998184  0.89076839  0.02745879    -0.43600
N724        N  0.55013265  0.10382647  0.48595953    -0.43600
C725        C  0.33038012  0.00108366  0.90938473    -0.00100
C726        C  0.34892894  0.96846545  0.89384989    -0.11900
C727        C  0.35060987  0.96758533  0.86175657     0.02200
C728        C  0.33300920  0.99971522  0.84440046    -0.00100
C729        C  0.31465847  0.03247715  0.85994393    -0.11900
C730        C  0.31302622  0.03337367  0.89206916     0.02100
H731        H  0.36285388  0.94377585  0.90686232     0.15100
H732        H  0.30071163  0.05714900  0.84693102     0.15100
C733        C  0.29174208  0.06689619  0.90645329     0.36700
C734        C  0.37205922  0.93410883  0.84745382     0.36600
N735        N  0.27456674  0.09370070  0.91794594    -0.43600
N736        N  0.38937036  0.90734058  0.83603119    -0.43600
C737        C  0.32654941  0.99766002  0.59437197    -0.00100
C738        C  0.34451771  0.03124605  0.60964227    -0.11900
C739        C  0.34719865  0.03263307  0.64170254     0.02200
C740        C  0.33144395  0.99988682  0.65935358    -0.00100
C741        C  0.31338162  0.96633119  0.64411659    -0.11900
C742        C  0.31060574  0.96500231  0.61202511     0.02100
H743        H  0.35728966  0.05637042  0.59645828     0.15100
H744        H  0.30061109  0.94125163  0.65734904     0.15100
C745        C  0.28984201  0.93044534  0.59809193     0.36700
C746        C  0.36759684  0.06744183  0.65561824     0.36600
N747        N  0.27306336  0.90275917  0.58702986    -0.43600
N748        N  0.38397879  0.09533027  0.66672754    -0.43600
C749        C  0.20367968  0.00066764  0.49922727    -0.00100
C750        C  0.18519413  0.97622828  0.97850302    -0.11900
C751        C  0.14232921  0.97613251  0.97623616     0.02200
C752        C  0.11712528  0.00039640  0.49581542    -0.00100
C753        C  0.13785727  0.02622099  0.51660346    -0.11900
C754        C  0.18074892  0.02663114  0.51842331     0.02100
H755        H  0.20270321  0.95564515  0.96416568     0.15100
H756        H  0.12044412  0.04608368  0.53156919     0.15100
C757        C  0.20030045  0.05226578  0.54133666     0.36700
C758        C  0.12266981  0.94717334  0.95574219     0.36600
N759        N  0.21587702  0.07258463  0.55987310    -0.43600
N760        N  0.10681607  0.92386988  0.93945310    -0.43600
loop_ 
_geom_bond_atom_site_label_1 
_geom_bond_atom_site_label_2 
_geom_bond_distance 
_geom_bond_site_symmetry_2 
_ccdc_geom_bond_type 
O1           Ni9   1.917       .  S
O1           C11   1.281       .  A
O2         Ni389   1.916       .  S
O2           C12   1.282       .  A
O3           Ni9   1.915       .  S
O3           C13   1.280       .  A
O4         Ni389   1.916       .  S
O4          C394   1.281   1_565  A
O5         Ni390   1.917       .  S
O5           C14   1.281       .  A
O6          Ni10   1.917       .  S
O6          C393   1.282   1_545  A
O7          Ni10   1.915       .  S
O7           C12   1.281   1_545  A
O8         Ni390   1.911       .  S
O8           C11   1.280   1_545  A
Ni9         O382   1.915   1_554  S
Ni9         O384   1.914   1_554  S
Ni9        Ni390   2.386   1_565  S
Ni10        O385   1.917       .  S
Ni10        O388   1.911       .  S
Ni10       Ni389   2.386   1_545  S
C11         C357   1.482       .  S
C12         C345   1.484   1_565  S
C13         O386   1.283   1_565  A
C13         C333   1.490       .  S
C14         O384   1.281   1_544  A
C14         C369   1.477   1_554  S
O15         Ni23   1.914       .  S
O15          C25   1.281       .  A
O16         Ni23   1.915       .  S
O16          C26   1.281       .  A
O17         Ni23   1.915       .  S
O17          C27   1.281       .  A
O18         Ni23   1.915       .  S
O18          C28   1.281       .  A
O19         Ni24   1.915       .  S
O19          C28   1.282   1_545  A
O20         Ni24   1.914       .  S
O20          C27   1.280   1_545  A
O21         Ni24   1.918       .  S
O21          C26   1.282   1_545  A
O22         Ni24   1.911       .  S
O22          C25   1.280   1_545  A
Ni23        Ni24   2.386   1_565  S
C25         C360   1.481       .  S
C26         C348   1.485       .  S
C27         C324   1.475   1_565  S
C28         C312   1.488       .  S
O29         Ni37   1.914       .  S
O29          C39   1.280       .  A
O30        Ni417   1.913       .  S
O30          C40   1.281       .  A
O31         Ni37   1.918       .  S
O31          C41   1.281       .  A
O32        Ni417   1.924       .  S
O32          C42   1.282       .  A
O33        Ni418   1.914       .  S
O33         C422   1.282   1_655  A
O34         Ni38   1.912       .  S
O34         C421   1.279   1_655  A
O35         Ni38   1.916       .  S
O35          C40   1.281   1_655  A
O36        Ni418   1.917       .  S
O36          C39   1.282   1_655  A
Ni37        O410   1.913   1_554  S
Ni37        O412   1.921       .  S
Ni37       Ni418   2.386   1_455  S
Ni38        O413   1.911       .  S
Ni38        O416   1.917       .  S
Ni38       Ni417   2.386   1_655  S
C39         C285   1.483       .  S
C40         C273   1.484       .  S
C41         O414   1.279   1_455  A
C41         C297   1.468   1_554  S
C42         O413   1.281   1_455  A
C42         C641   1.493       .  S
O43         Ni51   1.920       .  S
O43          C53   1.282       .  A
O44         Ni51   1.915       .  S
O44          C54   1.281       .  A
O45         Ni51   1.923       .  S
O45          C55   1.282       .  A
O46         Ni51   1.921       .  S
O46          C56   1.281       .  A
O47         Ni52   1.914       .  S
O47          C56   1.280   1_655  A
O48         Ni52   1.914       .  S
O48          C55   1.282   1_655  A
O49         Ni52   1.916       .  S
O49          C54   1.281   1_655  A
O50         Ni52   1.910       .  S
O50          C53   1.281   1_655  A
Ni51        Ni52   2.386   1_455  S
C53         C288   1.482       .  S
C54         C276   1.486       .  S
C55         C237   1.491       .  S
C56         C249   1.475       .  S
O57         Ni65   1.911       .  S
O57          C67   1.281   1_545  A
O58        Ni445   1.913       .  S
O58          C68   1.282   1_545  A
O59         Ni65   1.909       .  S
O59          C69   1.279   1_545  A
O60        Ni445   1.905       .  S
O60         C450   1.278   1_545  A
O61        Ni446   1.919       .  S
O61          C70   1.282       .  A
O62         Ni66   1.918       .  S
O62         C449   1.283       .  A
O63         Ni66   1.908       .  S
O63          C68   1.279       .  A
O64        Ni446   1.910       .  S
O64          C67   1.280       .  A
Ni65        O438   1.913   1_554  S
Ni65        O440   1.906       .  S
Ni65       Ni446   2.385   1_545  S
Ni66        O441   1.915       .  S
Ni66        O444   1.911       .  S
Ni66       Ni445   2.386   1_565  S
C67         C213   1.486       .  S
C68         C201   1.483       .  S
C69         O442   1.283       .  A
C69         C336   1.490       .  S
C70         O440   1.279   1_565  A
C70         C225   1.474       .  S
O71         Ni79   1.909       .  S
O71          C81   1.279   1_545  A
O72         Ni79   1.907       .  S
O72          C82   1.279   1_545  A
O73         Ni79   1.910       .  S
O73          C83   1.280   1_545  A
O74         Ni79   1.912       .  S
O74          C84   1.280   1_545  A
O75         Ni80   1.919       .  S
O75          C84   1.283       .  A
O76         Ni80   1.920       .  S
O76          C83   1.281       .  A
O77         Ni80   1.915       .  S
O77          C82   1.282       .  A
O78         Ni80   1.912       .  S
O78          C81   1.281       .  A
Ni79        Ni80   2.385   1_545  S
C81         C216   1.485       .  S
C82         C204   1.485       .  S
C83         C189   1.477       .  S
C84         C309   1.489   1_565  S
O85         Ni93   1.916       .  S
O85         C475   1.281       .  A
O86         Ni93   1.923   1_455  S
O86         C476   1.283   1_565  A
O87         Ni93   1.916       .  S
O87         C477   1.281       .  A
O88         Ni93   1.920   1_545  S
O88         C478   1.281       .  A
O89         Ni94   1.915   1_545  S
O89          C98   1.281   1_554  A
O90         Ni94   1.919       .  S
O90          C97   1.283   1_554  A
O91         Ni94   1.906   1_445  S
O91          C96   1.278   1_554  A
O92         Ni94   1.908       .  S
O92          C95   1.279   1_554  A
Ni93       Ni474   2.388   1_565  S
Ni94       Ni473   2.389   1_554  S
C95         O465   1.282       .  A
C95         C228   1.473       .  S
C96         O466   1.283       .  A
C96         C372   1.475       .  S
C97         O467   1.279       .  A
C97         C300   1.488       .  S
C98         O468   1.281       .  A
C98         C180   1.478       .  S
O99        Ni107   1.916   1_565  S
O99         C109   1.281   1_565  A
O100       Ni107   1.920   1_455  S
O100        C110   1.281       .  A
O101       Ni107   1.914   1_465  S
O101        C111   1.281       .  A
O102       Ni107   1.916       .  S
O102        C112   1.281       .  A
O103       Ni108   1.922       .  S
O103        C112   1.283   1_455  A
O104       Ni108   1.921   1_565  S
O104        C111   1.282       .  A
O105       Ni108   1.909       .  S
O105        C110   1.280       .  A
O106       Ni108   1.914   1_655  S
O106        C109   1.280       .  A
Ni107      Ni108   2.389   1_655  S
C109        C192   1.475   1_545  S
C110        C321   1.474       .  S
C111        C252   1.483       .  S
C112        C165   1.485       .  S
O113       Ni121   1.913   1_554  S
O113        C123   1.280       .  A
O114       Ni501   1.910       .  S
O114        C124   1.280   1_655  A
O115       Ni121   1.917       .  S
O115        C125   1.281       .  A
O116       Ni501   1.915       .  S
O116        C506   1.281   1_655  A
O117       Ni502   1.918       .  S
O117        C126   1.282   1_455  A
O118       Ni122   1.919       .  S
O118        C505   1.282   1_455  A
O119       Ni122   1.921       .  S
O119        C124   1.282       .  A
O120       Ni502   1.915   1_554  S
O120        C123   1.282   1_455  A
Ni121       O494   1.912       .  S
Ni121       O496   1.916       .  S
Ni121      Ni502   2.386   1_655  S
Ni122       O497   1.921       .  S
Ni122       O500   1.917       .  S
Ni122      Ni501   2.385   1_455  S
C123        C156   1.480       .  S
C124        C144   1.484       .  S
C125        O498   1.281   1_655  A
C125        C177   1.477       .  S
C126        O496   1.281       .  A
C126        C264   1.494   1_655  S
O127       Ni135   1.912       .  S
O127        C137   1.281   1_455  A
O128       Ni135   1.912       .  S
O128        C138   1.280   1_455  A
O129       Ni135   1.914       .  S
O129        C139   1.281   1_455  A
O130       Ni135   1.917       .  S
O130        C140   1.282       .  A
O131       Ni136   1.921       .  S
O131        C140   1.282   1_655  A
O132       Ni136   1.921       .  S
O132        C139   1.281       .  A
O133       Ni136   1.918       .  S
O133        C138   1.282       .  A
O134       Ni136   1.917       .  S
O134        C137   1.281       .  A
Ni135      Ni136   2.387   1_455  S
C137        C153   1.481       .  S
C138        C141   1.483   1_655  S
C139        C168   1.476       .  S
C140        C240   1.491       .  S
C141        C142   1.406       .  A
C141        C146   1.413   1_455  A
C142        C143   1.402       .  A
C142        H147   1.085       .  S
C143        C144   1.414       .  A
C143        C150   1.444       .  S
C144        C145   1.405   1_455  A
C145        C146   1.398       .  A
C145        H148   1.085       .  S
C146        C149   1.445       .  S
C149        N151   1.157       .  T
C150        N152   1.157       .  T
C153        C154   1.405       .  A
C153        C158   1.414   1_655  A
C154        C155   1.402       .  A
C154        H159   1.085       .  S
C155        C156   1.415       .  A
C155        C162   1.445       .  S
C156        C157   1.403   1_655  A
C157        C158   1.397       .  A
C157        H160   1.085       .  S
C158        C161   1.445       .  S
C161        N163   1.157       .  T
C162        N164   1.157       .  T
C165        C166   1.405   1_655  A
C165        C170   1.417       .  A
C166        C167   1.400       .  A
C166        H171   1.085       .  S
C167        C168   1.410   1_455  A
C167        C174   1.445       .  S
C168        C169   1.402       .  A
C169        C170   1.403       .  A
C169        H172   1.085       .  S
C170        C173   1.444       .  S
C173        N175   1.157       .  T
C174        N176   1.157       .  T
C177        C182   1.412   1_656  A
C177        C558   1.403       .  A
C178        C179   1.402       .  A
C178        C557   1.404       .  A
C178        H183   1.085       .  S
C179        C560   1.413       .  A
C179        C186   1.444       .  S
C180        C181   1.404   1_656  A
C180        C559   1.412       .  A
C181        C182   1.400       .  A
C181        H184   1.085       .  S
C182        C185   1.444       .  S
C185        N187   1.157       .  T
C186        N188   1.157       .  T
C189        C190   1.403       .  A
C189        C194   1.413   1_565  A
C190        C191   1.401       .  A
C190        H195   1.085       .  S
C191        C192   1.412       .  A
C191        C198   1.444       .  S
C192        C193   1.403   1_565  A
C193        C194   1.400       .  A
C193        H196   1.085       .  S
C194        C197   1.445       .  S
C197        N199   1.157       .  T
C198        N200   1.157       .  T
C201        C202   1.404   1_565  A
C201        C206   1.416       .  A
C202        C203   1.397       .  A
C202        H207   1.085       .  S
C203        C204   1.416   1_545  A
C203        C210   1.445       .  S
C204        C205   1.405       .  A
C205        C206   1.399       .  A
C205        H208   1.085       .  S
C206        C209   1.445       .  S
C209        N211   1.158       .  T
C210        N212   1.157       .  T
C213        C214   1.405   1_565  A
C213        C218   1.416       .  A
C214        C215   1.397       .  A
C214        H219   1.085       .  S
C215        C216   1.416   1_545  A
C215        C222   1.445       .  S
C216        C217   1.405       .  A
C217        C218   1.398       .  A
C217        H220   1.085       .  S
C218        C221   1.445       .  S
C221        N223   1.157       .  T
C222        N224   1.157       .  T
C225        C230   1.412   1_565  A
C225        C606   1.403   1_554  A
C226        C227   1.399       .  A
C226        C605   1.398       .  A
C226        H231   1.086       .  S
C227        C608   1.418       .  A
C227        C234   1.443       .  S
C228        C229   1.402   1_566  A
C228        C607   1.411       .  A
C229        C230   1.397       .  A
C229        H232   1.085       .  S
C230        C233   1.445       .  S
C233        N235   1.157       .  T
C234        N236   1.157       .  T
C237        C238   1.407   1_455  A
C237        C242   1.416       .  A
C238        C239   1.401       .  A
C238        H243   1.085       .  S
C239        C240   1.415   1_655  A
C239        C246   1.444       .  S
C240        C241   1.407       .  A
C241        C242   1.403       .  A
C241        H244   1.085       .  S
C242        C245   1.444       .  S
C245        N247   1.157       .  T
C246        N248   1.157       .  T
C249        C250   1.403       .  A
C249        C254   1.410   1_455  A
C250        C251   1.403       .  A
C250        H255   1.085       .  S
C251        C252   1.416       .  A
C251        C258   1.444       .  S
C252        C253   1.405   1_455  A
C253        C254   1.398       .  A
C253        H256   1.084       .  S
C254        C257   1.445       .  S
C257        N259   1.157       .  T
C258        N260   1.157       .  T
C261        C422   1.494       .  S
C261        C266   1.417       .  A
C261        C642   1.407   1_454  A
C262        C263   1.398       .  A
C262        C641   1.406   1_655  A
C262        H267   1.085       .  S
C263        C644   1.417   1_655  A
C263        C270   1.444       .  S
C264        C265   1.408   1_556  A
C264        C643   1.417   1_455  A
C265        C266   1.402       .  A
C265        H268   1.084       .  S
C266        C269   1.444       .  S
C269        N271   1.157       .  T
C270        N272   1.157       .  T
C273        C274   1.404       .  A
C273        C278   1.414   1_455  A
C274        C275   1.398       .  A
C274        H279   1.085       .  S
C275        C276   1.415       .  A
C275        C282   1.444       .  S
C276        C277   1.407   1_455  A
C277        C278   1.401       .  A
C277        H280   1.085       .  S
C278        C281   1.445       .  S
C281        N283   1.157       .  T
C282        N284   1.157       .  T
C285        C286   1.406       .  A
C285        C290   1.412   1_455  A
C286        C287   1.403       .  A
C286        H291   1.084       .  S
C287        C288   1.413       .  A
C287        C294   1.444       .  S
C288        C289   1.404   1_455  A
C289        C290   1.397       .  A
C289        H292   1.085       .  S
C290        C293   1.444       .  S
C293        N295   1.157       .  T
C294        N296   1.157       .  T
C297        C302   1.405   1_556  A
C297        C678   1.399   1_455  A
C298        C299   1.400       .  A
C298        C677   1.402       .  A
C298        H303   1.085       .  S
C299        C680   1.414       .  A
C299        C306   1.442       .  S
C300        C301   1.407   1_656  A
C300        C679   1.420       .  A
C301        C302   1.398       .  A
C301        H304   1.084       .  S
C302        C305   1.443       .  S
C305        N307   1.157       .  T
C306        N308   1.157       .  T
C309        C310   1.406   1_545  A
C309        C314   1.417       .  A
C310        C311   1.400       .  A
C310        H315   1.085       .  S
C311        C312   1.416       .  A
C311        C318   1.444       .  S
C312        C313   1.405   1_565  A
C313        C314   1.400       .  A
C313        H316   1.085       .  S
C314        C317   1.445       .  S
C317        N319   1.157       .  T
C318        N320   1.157       .  T
C321        C322   1.403   1_545  A
C321        C326   1.410       .  A
C322        C323   1.398       .  A
C322        H327   1.084       .  S
C323        C324   1.410   1_565  A
C323        C330   1.444       .  S
C324        C325   1.406       .  A
C325        C326   1.402       .  A
C325        H328   1.085       .  S
C326        C329   1.444       .  S
C329        N331   1.157       .  T
C330        N332   1.157       .  T
C333        C334   1.405   1_564  A
C333        C718   1.417       .  A
C334        C335   1.399       .  A
C334        H339   1.085       .  S
C335        C336   1.417   1_546  A
C335        C342   1.445       .  S
C336        C717   1.406       .  A
C337        C338   1.400       .  A
C337        C716   1.406       .  A
C337        H340   1.085       .  S
C338        C713   1.417       .  A
C338        C341   1.444       .  S
C341        N343   1.157       .  T
C342        N344   1.157       .  T
C345        C346   1.405   1_545  A
C345        C350   1.414       .  A
C346        C347   1.401       .  A
C346        H351   1.085       .  S
C347        C348   1.415       .  A
C347        C354   1.444       .  S
C348        C349   1.405   1_565  A
C349        C350   1.401       .  A
C349        H352   1.085       .  S
C350        C353   1.444       .  S
C353        N355   1.157       .  T
C354        N356   1.157       .  T
C357        C358   1.405   1_565  A
C357        C362   1.414       .  A
C358        C359   1.398       .  A
C358        H363   1.085       .  S
C359        C360   1.413   1_545  A
C359        C366   1.445       .  S
C360        C361   1.405       .  A
C361        C362   1.400       .  A
C361        H364   1.085       .  S
C362        C365   1.444       .  S
C365        N367   1.157       .  T
C366        N368   1.157       .  T
C369        C374   1.412   1_556  A
C369        C750   1.404   1_545  A
C370        C371   1.401       .  A
C370        C749   1.404   1_565  A
C370        H375   1.085       .  S
C371        C752   1.411   1_565  A
C371        C378   1.444       .  S
C372        C373   1.404   1_556  A
C372        C751   1.410   1_545  A
C373        C374   1.400       .  A
C373        H376   1.085       .  S
C374        C377   1.444       .  S
C377        N379   1.157       .  T
C378        N380   1.157       .  T
O381       Ni389   1.918       .  S
O381        C391   1.282       .  A
O382        C392   1.281   1_565  A
O383       Ni389   1.914       .  S
O383        C393   1.280       .  A
O385        C394   1.281       .  A
O386       Ni390   1.917       .  S
O387       Ni390   1.914   1_556  S
O387        C392   1.281       .  A
O388        C391   1.281   1_545  A
C391        C737   1.484       .  S
C392        C725   1.482       .  S
C393        C713   1.490       .  S
C394        C749   1.477       .  S
O395       Ni403   1.915       .  S
O395        C405   1.281       .  A
O396       Ni403   1.913       .  S
O396        C406   1.280       .  A
O397       Ni403   1.912       .  S
O397        C407   1.280   1_565  A
O398       Ni403   1.912       .  S
O398        C408   1.280       .  A
O399       Ni404   1.917       .  S
O399        C408   1.282   1_545  A
O400       Ni404   1.915       .  S
O400        C407   1.281       .  A
O401       Ni404   1.918       .  S
O401        C406   1.282   1_545  A
O402       Ni404   1.912       .  S
O402        C405   1.280   1_545  A
Ni403      Ni404   2.386   1_565  S
C405        C740   1.483       .  S
C406        C728   1.483       .  S
C407        C704   1.474       .  S
C408        C692   1.491       .  S
O409       Ni417   1.912       .  S
O409        C419   1.280       .  A
O410        C420   1.282       .  A
O411       Ni417   1.920       .  S
O411        C421   1.282       .  A
O412        C422   1.282       .  A
O414       Ni418   1.913       .  S
O415       Ni418   1.914   1_556  S
O415        C420   1.281   1_655  A
O416        C419   1.282   1_655  A
C419        C665   1.481       .  S
C420        C653   1.484       .  S
C421        C677   1.474   1_455  S
O423       Ni431   1.918       .  S
O423        C433   1.281       .  A
O424       Ni431   1.913       .  S
O424        C434   1.281       .  A
O425       Ni431   1.923       .  S
O425        C435   1.282       .  A
O426       Ni431   1.922       .  S
O426        C436   1.281       .  A
O427       Ni432   1.914       .  S
O427        C436   1.280   1_655  A
O428       Ni432   1.914       .  S
O428        C435   1.281   1_655  A
O429       Ni432   1.916       .  S
O429        C434   1.282   1_655  A
O430       Ni432   1.910       .  S
O430        C433   1.281   1_655  A
Ni431      Ni432   2.386   1_455  S
C433        C668   1.480       .  S
C434        C656   1.486       .  S
C435        C617   1.491       .  S
C436        C629   1.475       .  S
O437       Ni445   1.910       .  S
O437        C447   1.281   1_545  A
O438        C448   1.282   1_545  A
O439       Ni445   1.911       .  S
O439        C449   1.280   1_545  A
O441        C450   1.280       .  A
O442       Ni446   1.921       .  S
O443       Ni446   1.907   1_556  S
O443        C448   1.279       .  A
O444        C447   1.280       .  A
C447        C593   1.485       .  S
C448        C581   1.485       .  S
C449        C716   1.490       .  S
C450        C605   1.462       .  S
O451       Ni459   1.909       .  S
O451        C461   1.280   1_545  A
O452       Ni459   1.907       .  S
O452        C462   1.279   1_545  A
O453       Ni459   1.910       .  S
O453        C463   1.280   1_545  A
O454       Ni459   1.913       .  S
O454        C464   1.280       .  A
O455       Ni460   1.917       .  S
O455        C464   1.283   1_565  A
O456       Ni460   1.918       .  S
O456        C463   1.281       .  A
O457       Ni460   1.913       .  S
O457        C462   1.282       .  A
O458       Ni460   1.911       .  S
O458        C461   1.281       .  A
Ni459      Ni460   2.384   1_545  S
C461        C596   1.485       .  S
C462        C584   1.485       .  S
C463        C569   1.475       .  S
C464        C689   1.491       .  S
O465       Ni473   1.921       .  S
O466       Ni473   1.923   1_445  S
O467       Ni473   1.911       .  S
O468       Ni473   1.917   1_545  S
O469       Ni474   1.916       .  S
O469        C478   1.281       .  A
O470       Ni474   1.918   1_565  S
O470        C477   1.282       .  A
O471       Ni474   1.907   1_455  S
O471        C476   1.279       .  A
O472       Ni474   1.909   1_565  S
O472        C475   1.281       .  A
C475        C608   1.483       .  S
C476        C752   1.477       .  S
C477        C680   1.480       .  S
C478        C560   1.480       .  S
O479       Ni487   1.913   1_565  S
O479        C489   1.281   1_565  A
O480       Ni487   1.918   1_455  S
O480        C490   1.281       .  A
O481       Ni487   1.914   1_465  S
O481        C491   1.281       .  A
O482       Ni487   1.916       .  S
O482        C492   1.281       .  A
O483       Ni488   1.922       .  S
O483        C492   1.283   1_455  A
O484       Ni488   1.920   1_565  S
O484        C491   1.282       .  A
O485       Ni488   1.909       .  S
O485        C490   1.280       .  A
O486       Ni488   1.915   1_655  S
O486        C489   1.280       .  A
Ni487      Ni488   2.389   1_655  S
C489        C572   1.475   1_545  S
C490        C701   1.472       .  S
C491        C632   1.483       .  S
C492        C545   1.484       .  S
O493       Ni501   1.913       .  S
O493        C503   1.280       .  A
O494        C504   1.281   1_655  A
O495       Ni501   1.917       .  S
O495        C505   1.281       .  A
O497        C506   1.282       .  A
O498       Ni502   1.917       .  S
O499       Ni502   1.920       .  S
O499        C504   1.282       .  A
O500        C503   1.282   1_455  A
C503        C536   1.483       .  S
C504        C524   1.485       .  S
C505        C557   1.479       .  S
C506        C644   1.494       .  S
O507       Ni515   1.914       .  S
O507        C517   1.281   1_455  A
O508       Ni515   1.913       .  S
O508        C518   1.280   1_455  A
O509       Ni515   1.914       .  S
O509        C519   1.281   1_455  A
O510       Ni515   1.917       .  S
O510        C520   1.282       .  A
O511       Ni516   1.921       .  S
O511        C520   1.282   1_655  A
O512       Ni516   1.920       .  S
O512        C519   1.281       .  A
O513       Ni516   1.920       .  S
O513        C518   1.282       .  A
O514       Ni516   1.918       .  S
O514        C517   1.281       .  A
Ni515      Ni516   2.386   1_455  S
C517        C533   1.484       .  S
C518        C521   1.485       .  S
C519        C548   1.476       .  S
C520        C620   1.491       .  S
C521        C522   1.406   1_655  A
C521        C526   1.414       .  A
C522        C523   1.402       .  A
C522        H527   1.085       .  S
C523        C524   1.414       .  A
C523        C530   1.444       .  S
C524        C525   1.405   1_455  A
C525        C526   1.399       .  A
C525        H528   1.085       .  S
C526        C529   1.444       .  S
C529        N531   1.157       .  T
C530        N532   1.157       .  T
C533        C534   1.405       .  A
C533        C538   1.415   1_655  A
C534        C535   1.402       .  A
C534        H539   1.085       .  S
C535        C536   1.415       .  A
C535        C542   1.445       .  S
C536        C537   1.403   1_655  A
C537        C538   1.399       .  A
C537        H540   1.085       .  S
C538        C541   1.445       .  S
C541        N543   1.157       .  T
C542        N544   1.157       .  T
C545        C546   1.405   1_655  A
C545        C550   1.416       .  A
C546        C547   1.400       .  A
C546        H551   1.085       .  S
C547        C548   1.410   1_455  A
C547        C554   1.445       .  S
C548        C549   1.402       .  A
C549        C550   1.403       .  A
C549        H552   1.085       .  S
C550        C553   1.444       .  S
C553        N555   1.157       .  T
C554        N556   1.157       .  T
C557        C562   1.412   1_655  A
C558        C559   1.401       .  A
C558        H563   1.085       .  S
C559        C566   1.444       .  S
C560        C561   1.404   1_655  A
C561        C562   1.400       .  A
C561        H564   1.085       .  S
C562        C565   1.444       .  S
C565        N567   1.157       .  T
C566        N568   1.157       .  T
C569        C570   1.403       .  A
C569        C574   1.412   1_565  A
C570        C571   1.400       .  A
C570        H575   1.085       .  S
C571        C572   1.412       .  A
C571        C578   1.444       .  S
C572        C573   1.403   1_565  A
C573        C574   1.399       .  A
C573        H576   1.085       .  S
C574        C577   1.445       .  S
C577        N579   1.157       .  T
C578        N580   1.157       .  T
C581        C582   1.405   1_565  A
C581        C586   1.417       .  A
C582        C583   1.397       .  A
C582        H587   1.085       .  S
C583        C584   1.416   1_545  A
C583        C590   1.445       .  S
C584        C585   1.405       .  A
C585        C586   1.398       .  A
C585        H588   1.085       .  S
C586        C589   1.445       .  S
C589        N591   1.158       .  T
C590        N592   1.157       .  T
C593        C594   1.405   1_565  A
C593        C598   1.416       .  A
C594        C595   1.397       .  A
C594        H599   1.085       .  S
C595        C596   1.416   1_545  A
C595        C602   1.445       .  S
C596        C597   1.406       .  A
C597        C598   1.398       .  A
C597        H600   1.085       .  S
C598        C601   1.445       .  S
C601        N603   1.157       .  T
C602        N604   1.157       .  T
C605        C610   1.405   1_565  A
C606        C607   1.400       .  A
C606        H611   1.085       .  S
C607        C614   1.443       .  S
C608        C609   1.408   1_565  A
C609        C610   1.396       .  A
C609        H612   1.084       .  S
C610        C613   1.445       .  S
C613        N615   1.157       .  T
C614        N616   1.157       .  T
C617        C618   1.407   1_455  A
C617        C622   1.415       .  A
C618        C619   1.401       .  A
C618        H623   1.085       .  S
C619        C620   1.415   1_655  A
C619        C626   1.444       .  S
C620        C621   1.407       .  A
C621        C622   1.403       .  A
C621        H624   1.085       .  S
C622        C625   1.444       .  S
C625        N627   1.157       .  T
C626        N628   1.157       .  T
C629        C630   1.403       .  A
C629        C634   1.410   1_455  A
C630        C631   1.403       .  A
C630        H635   1.085       .  S
C631        C632   1.416       .  A
C631        C638   1.444       .  S
C632        C633   1.405   1_455  A
C633        C634   1.399       .  A
C633        H636   1.084       .  S
C634        C637   1.445       .  S
C637        N639   1.157       .  T
C638        N640   1.157       .  T
C641        C646   1.416       .  A
C642        C643   1.400       .  A
C642        H647   1.084       .  S
C643        C650   1.445       .  S
C644        C645   1.409       .  A
C645        C646   1.405       .  A
C645        H648   1.084       .  S
C646        C649   1.444       .  S
C649        N651   1.157       .  T
C650        N652   1.157       .  T
C653        C654   1.404       .  A
C653        C658   1.415   1_455  A
C654        C655   1.398       .  A
C654        H659   1.085       .  S
C655        C656   1.415       .  A
C655        C662   1.444       .  S
C656        C657   1.406   1_455  A
C657        C658   1.401       .  A
C657        H660   1.085       .  S
C658        C661   1.445       .  S
C661        N663   1.157       .  T
C662        N664   1.157       .  T
C665        C666   1.406       .  A
C665        C670   1.412   1_455  A
C666        C667   1.402       .  A
C666        H671   1.084       .  S
C667        C668   1.413       .  A
C667        C674   1.445       .  S
C668        C669   1.404   1_455  A
C669        C670   1.397       .  A
C669        H672   1.085       .  S
C670        C673   1.444       .  S
C673        N675   1.157       .  T
C674        N676   1.157       .  T
C677        C682   1.409   1_655  A
C678        C679   1.401       .  A
C678        H683   1.085       .  S
C679        C686   1.444       .  S
C680        C681   1.404   1_655  A
C681        C682   1.400       .  A
C681        H684   1.085       .  S
C682        C685   1.443       .  S
C685        N687   1.157       .  T
C686        N688   1.158       .  T
C689        C690   1.406   1_545  A
C689        C694   1.418       .  A
C690        C691   1.399       .  A
C690        H695   1.085       .  S
C691        C692   1.417       .  A
C691        C698   1.445       .  S
C692        C693   1.406   1_565  A
C693        C694   1.401       .  A
C693        H696   1.085       .  S
C694        C697   1.445       .  S
C697        N699   1.157       .  T
C698        N700   1.157       .  T
C701        C702   1.403   1_545  A
C701        C706   1.410       .  A
C702        C703   1.398       .  A
C702        H707   1.084       .  S
C703        C704   1.411   1_565  A
C703        C710   1.445       .  S
C704        C705   1.405       .  A
C705        C706   1.401       .  A
C705        H708   1.085       .  S
C706        C709   1.444       .  S
C709        N711   1.157       .  T
C710        N712   1.157       .  T
C713        C714   1.406   1_565  A
C714        C715   1.400       .  A
C714        H719   1.085       .  S
C715        C716   1.417   1_545  A
C715        C722   1.445       .  S
C717        C718   1.401       .  A
C717        H720   1.085       .  S
C718        C721   1.444       .  S
C721        N723   1.157       .  T
C722        N724   1.157       .  T
C725        C726   1.404   1_545  A
C725        C730   1.414       .  A
C726        C727   1.399       .  A
C726        H731   1.085       .  S
C727        C728   1.414       .  A
C727        C734   1.445       .  S
C728        C729   1.405   1_565  A
C729        C730   1.400       .  A
C729        H732   1.085       .  S
C730        C733   1.445       .  S
C733        N735   1.157       .  T
C734        N736   1.157       .  T
C737        C738   1.406   1_565  A
C737        C742   1.414       .  A
C738        C739   1.399       .  A
C738        H743   1.085       .  S
C739        C740   1.414   1_545  A
C739        C746   1.445       .  S
C740        C741   1.405       .  A
C741        C742   1.400       .  A
C741        H744   1.085       .  S
C742        C745   1.444       .  S
C745        N747   1.157       .  T
C746        N748   1.157       .  T
C749        C754   1.412       .  A
C750        C751   1.400       .  A
C750        H755   1.085       .  S
C751        C758   1.444       .  S
C752        C753   1.404       .  A
C753        C754   1.400       .  A
C753        H756   1.085       .  S
C754        C757   1.445       .  S
C757        N759   1.157       .  T
C758        N760   1.157       .  T
