geometry optimzed in LAMMPS
_audit_creation_date              2020-11-30 
_audit_creation_method            'lammps2cif' 
_symmetry_space_group_name_H-M    'P1' 
_symmetry_Int_Tables_number       1 
_symmetry_cell_setting            triclinic 
loop_ 
_symmetry_equiv_pos_as_xyz 
  x,y,z 
_cell_length_a                    43.46337534 
_cell_length_b                    43.44412558044983 
_cell_length_c                    26.167078478472344 
_cell_angle_alpha                 90.22798592817806 
_cell_angle_beta                  90.23577059108351 
_cell_angle_gamma                 89.83079231713641 
loop_ 
_atom_site_label 
_atom_site_type_symbol 
_atom_site_fract_x 
_atom_site_fract_y 
_atom_site_fract_z 
_atom_site_charge 
O1          O  0.04307291  0.99711611  0.03946941    -0.72400
O2          O  0.45575667  0.49984142  0.03854641    -0.72600
O3          O  0.99819817  0.45487345  0.03893561    -0.72500
O4          O  0.50058727  0.04234883  0.03855547    -0.72500
O5          O  0.99875756  0.04186483  0.45584047    -0.72400
O6          O  0.50027105  0.45471573  0.45607961    -0.72400
O7          O  0.45573175  0.99796850  0.45557333    -0.72400
O8          O  0.04316207  0.49911037  0.45646317    -0.72600
V9          V  0.99939466  0.49855017  0.03731689     1.35200
V10         V  0.49946442  0.49835003  0.45759887     1.35200
C11         C  0.05794359  0.99804403  0.49811974     0.76900
C12         C  0.44086498  0.49945929  0.49695391     0.76900
C13         C  0.49948790  0.43988391  0.99746341     0.76800
C14         C  0.99968012  0.05712212  0.99693015     0.76800
O15         O  0.04424022  0.99941902  0.29147463    -0.72400
O16         O  0.45678369  0.50013301  0.28902384    -0.72600
O17         O  0.99999183  0.45599559  0.29088446    -0.72500
O18         O  0.50104082  0.04325705  0.29005174    -0.72500
O19         O  0.00049981  0.04289136  0.20696916    -0.72400
O20         O  0.50147717  0.45535849  0.20794482    -0.72400
O21         O  0.45746197  0.99880931  0.20621245    -0.72400
O22         O  0.04471419  0.49925711  0.20835985    -0.72600
V23         V  0.00053563  0.49964757  0.28874224     1.35200
V24         V  0.50106608  0.49910415  0.20898578     1.35200
C25         C  0.05927933  0.49938288  0.25022824     0.76900
C26         C  0.44213437  0.49969848  0.24709583     0.76900
C27         C  0.50029252  0.44078397  0.24963882     0.76800
C28         C  0.50061582  0.05792151  0.24849075     0.76800
O29         O  0.02516371  0.24955840  0.07434444    -0.72400
O30         O  0.02527078  0.24746450  0.42944989    -0.72600
O31         O  0.02524164  0.29214641  0.00024521    -0.72500
O32         O  0.02500641  0.20474013  0.50393067    -0.72500
O33         O  0.47503754  0.20512377  0.99883719    -0.72400
O34         O  0.47528899  0.29239347  0.50429057    -0.72400
O35         O  0.47530253  0.25015299  0.42900046    -0.72400
O36         O  0.47517693  0.24746569  0.07397456    -0.72600
V37         V  0.02421563  0.24846417  0.00193886     1.35200
V38         V  0.47615594  0.24875997  0.50150582     1.35200
C39         C  0.50017995  0.24853188  0.09873825     0.76900
C40         C  0.50033065  0.24905227  0.40462306     0.76900
C41         C  0.50029489  0.30711075  0.00283109     0.76800
C42         C  0.49992991  0.19014457  0.00161819     0.76800
O43         O  0.02542541  0.25022139  0.32427347    -0.72400
O44         O  0.02530894  0.24829436  0.17922995    -0.72600
O45         O  0.02520934  0.29300466  0.24987247    -0.72500
O46         O  0.02569589  0.20568480  0.25332807    -0.72500
O47         O  0.47573162  0.20550214  0.25107364    -0.72400
O48         O  0.47521958  0.29296235  0.25186664    -0.72400
O49         O  0.47528386  0.24923119  0.17905175    -0.72400
O50         O  0.47541410  0.24909646  0.32395316    -0.72600
V51         V  0.02443821  0.24932358  0.25170710     1.35200
V52         V  0.47638090  0.24921573  0.25150740     1.35200
C53         C  0.50040943  0.24952589  0.34871919     0.76900
C54         C  0.50025414  0.24864160  0.15456916     0.76900
C55         C  0.50015040  0.30784593  0.24994039     0.76800
C56         C  0.50082480  0.19071272  0.25281703     0.76800
O57         O  0.24888452  0.02751048  0.42791563    -0.72400
O58         O  0.25047227  0.02736364  0.07283784    -0.72600
O59         O  0.29333096  0.02721759  0.49914043    -0.72500
O60         O  0.20582201  0.02741581  0.00150704    -0.72500
O61         O  0.20592414  0.47749109  0.49885632    -0.72400
O62         O  0.29322993  0.47720922  0.00159967    -0.72400
O63         O  0.24913042  0.47733641  0.07253508    -0.72400
O64         O  0.25021006  0.47747929  0.42753837    -0.72600
V65         V  0.24959679  0.02641900  0.50037595     1.35200
V66         V  0.24959725  0.47835562  0.00008813     1.35200
C67         C  0.24970164  0.50252594  0.40312830     0.76900
C68         C  0.25004399  0.50234678  0.09726354     0.76900
C69         C  0.30812600  0.50212881  0.50079977     0.76800
C70         C  0.19090558  0.50246310  0.49968578     0.76800
O71         O  0.24980766  0.47754279  0.32254840    -0.72400
O72         O  0.25095002  0.47737434  0.17761923    -0.72600
O73         O  0.29414699  0.47687813  0.25172690    -0.72500
O74         O  0.20682830  0.47807922  0.24891155    -0.72500
O75         O  0.20722137  0.02801250  0.25017788    -0.72400
O76         O  0.29462681  0.02692141  0.24982019    -0.72400
O77         O  0.25061474  0.02742435  0.17773446    -0.72400
O78         O  0.25102926  0.02757082  0.32274198    -0.72600
V79         V  0.25046734  0.47844780  0.25013029     1.35200
V80         V  0.25090301  0.02651951  0.25015833     1.35200
C81         C  0.25016263  0.50257096  0.34724068     0.76900
C82         C  0.25059307  0.50237034  0.15310110     0.76900
C83         C  0.30918928  0.50170892  0.25108347     0.76800
C84         C  0.19208027  0.50321300  0.24996162     0.76800
C85         C  0.09308599  0.49971631  0.25084839    -0.06700
C86         C  0.10812998  0.02457458  0.27415732    -0.17800
C87         C  0.14027069  0.02663753  0.27423038     0.10500
C88         C  0.15798199  0.50313520  0.25063873    -0.06600
C89         C  0.14267017  0.47830039  0.22727705    -0.17900
C90         C  0.11057652  0.47635209  0.22717322     0.10500
S91         S  0.15692624  0.05957745  0.30574541    -0.32800
S92         S  0.09329906  0.44312640  0.19735895    -0.32900
H93         H  0.06922720  0.44054362  0.23278029     0.28500
H94         H  0.18029210  0.04261865  0.33011532     0.28500
H95         H  0.09469120  0.04265409  0.29214085     0.19100
H96         H  0.15579966  0.46016044  0.20889807     0.19100
C97         C  0.40794183  0.50007337  0.24644536    -0.06700
C98         C  0.39236495  0.48951337  0.28999211    -0.17800
C99         C  0.36023455  0.48987052  0.29260147     0.10500
C100        C  0.34300017  0.50130941  0.25105438    -0.06600
C101        C  0.35824871  0.01187585  0.20755029    -0.17900
C102        C  0.39045996  0.01101568  0.20426809     0.10500
S103        S  0.34258137  0.47579509  0.35016853    -0.32800
S104        S  0.40837414  0.02435203  0.14619048    -0.32900
H105        H  0.38132148  0.03263966  0.11989691     0.28500
H106        H  0.31816295  0.49707379  0.35017388     0.28500
H107        H  0.40529845  0.48083979  0.32240555     0.19100
H108        H  0.34469603  0.02032369  0.17570805     0.19100
C109        C  0.49954397  0.40677558  0.24994647    -0.06700
C110        C  0.01777821  0.39064351  0.21466218    -0.17800
C111        C  0.01827290  0.35846204  0.21343763     0.10500
C112        C  0.49993718  0.34178089  0.24813277    -0.06600
C113        C  0.48109098  0.35786245  0.28256268    -0.17900
C114        C  0.48079160  0.39016081  0.28410243     0.10500
S115        S  0.04212840  0.34030218  0.16569473    -0.32800
S116        S  0.45520527  0.40975570  0.32790803    -0.32900
H117        H  0.44442281  0.38338431  0.35309899     0.28500
H118        H  0.02276597  0.31497058  0.15713538     0.28500
H119        H  0.03183029  0.40321833  0.18780755     0.19100
H120        H  0.46684287  0.34499205  0.30869001     0.19100
C121        C  0.50031574  0.09181915  0.24895270    -0.06700
C122        C  0.02210061  0.10727614  0.27913738    -0.17800
C123        C  0.02245091  0.13943531  0.28209691     0.10500
C124        C  0.50093806  0.15673548  0.25329985    -0.06600
C125        C  0.47906508  0.14118888  0.22334208    -0.17900
C126        C  0.47840242  0.10905299  0.22116785     0.10500
S127        S  0.04986535  0.15679638  0.32521623    -0.32800
S128        S  0.44826057  0.09146251  0.18402694    -0.32900
H129        H  0.44272154  0.06783494  0.21937691     0.28500
H130        H  0.02942037  0.17947421  0.34337359     0.28500
H131        H  0.03874830  0.09416480  0.30109631     0.19100
H132        H  0.46233815  0.15418021  0.20136018     0.19100
C133        C  0.09179165  0.99843817  0.49837026    -0.06700
C134        C  0.10672742  0.02338693  0.47567029    -0.17800
C135        C  0.13885391  0.02551969  0.47565089     0.10500
C136        C  0.15675529  0.50205584  0.49881115    -0.06600
C137        C  0.14159241  0.47704228  0.02147963    -0.17900
C138        C  0.10944773  0.47497218  0.02146184     0.10500
S139        S  0.15528237  0.05840149  0.44434079    -0.32800
S140        S  0.09240843  0.44147532  0.05028038    -0.32900
H141        H  0.06735660  0.43950714  0.01632839     0.28500
H142        H  0.17885344  0.04150153  0.42051341     0.28500
H143        H  0.09319969  0.04146337  0.45792358     0.19100
H144        H  0.15488828  0.45887443  0.03939976     0.19100
C145        C  0.40690723  0.50071283  0.49721081    -0.06700
C146        C  0.39112940  0.48329410  0.03370841    -0.17800
C147        C  0.35900481  0.48388222  0.03648011     0.10500
C148        C  0.34201970  0.50189243  0.50142970    -0.06600
C149        C  0.35773172  0.01953220  0.46522170    -0.17900
C150        C  0.38989286  0.01921551  0.46280529     0.10500
S151        S  0.34115876  0.46221206  0.08690944    -0.32800
S152        S  0.40777902  0.04376025  0.41630286    -0.32900
H153        H  0.43130723  0.05365488  0.44951630     0.28500
H154        H  0.31797553  0.48406289  0.09681689     0.28500
H155        H  0.40395794  0.46929171  0.06062465     0.19100
H156        H  0.34483293  0.03353536  0.43839376     0.19100
C157        C  0.50039754  0.34098500  0.00328379    -0.06700
C158        C  0.51794951  0.35625474  0.46645832    -0.17800
C159        C  0.51756849  0.38835321  0.46285451     0.10500
C160        C  0.49987987  0.40586703  0.99776450    -0.06600
C161        C  0.98285830  0.39052327  0.03533062    -0.17900
C162        C  0.98284940  0.35838645  0.03842536     0.10500
S163        S  0.54141212  0.40559940  0.41476948    -0.32800
S164        S  0.96073499  0.34123038  0.08906048    -0.32900
H165        H  0.98024920  0.31581714  0.09655392     0.28500
H166        H  0.51610274  0.41691054  0.38688345     0.28500
H167        H  0.53155929  0.34302788  0.43952477     0.19100
H168        H  0.96942872  0.40368652  0.06258679     0.19100
C169        C  0.49963059  0.15637336  0.00153892    -0.06700
C170        C  0.99049030  0.14117848  0.45683182    -0.17800
C171        C  0.99093660  0.10906089  0.45352707     0.10500
C172        C  0.49986355  0.09135887  0.99669044    -0.06600
C173        C  0.50876341  0.10691165  0.04166415    -0.17900
C174        C  0.50878067  0.13908031  0.04446897     0.10500
S175        S  0.97945322  0.09258097  0.39320697    -0.32800
S176        S  0.52014425  0.15672787  0.10408244    -0.32900
H177        H  0.49905796  0.18124537  0.10114434     0.28500
H178        H  0.00861651  0.07942181  0.38465066     0.28500
H179        H  0.98359770  0.15451809  0.42374216     0.19100
H180        H  0.51571239  0.09397490  0.07512289     0.19100
O181        O  0.04307282  0.99711632  0.53946919    -0.72400
O182        O  0.45575669  0.49984154  0.53854458    -0.72600
O183        O  0.99819792  0.45487355  0.53893509    -0.72500
O184        O  0.50058684  0.04234845  0.53855349    -0.72500
O185        O  0.99875766  0.04186480  0.95584110    -0.72400
O186        O  0.50027125  0.45471598  0.95608146    -0.72400
O187        O  0.45573155  0.99796908  0.95557607    -0.72400
O188        O  0.04316202  0.49911043  0.95646385    -0.72600
V189        V  0.99939455  0.49855024  0.53731602     1.35200
V190        V  0.49946459  0.49835024  0.95760094     1.35200
C191        C  0.05794351  0.99804364  0.99811979     0.76900
C192        C  0.44086507  0.49945923  0.99695567     0.76900
C193        C  0.49948772  0.43988372  0.49746161     0.76800
C194        C  0.99967982  0.05712213  0.49692958     0.76800
O195        O  0.04424009  0.99941905  0.79147299    -0.72400
O196        O  0.45678448  0.50013279  0.78902379    -0.72600
O197        O  0.99999263  0.45599553  0.79088249    -0.72500
O198        O  0.50104058  0.04325671  0.79005148    -0.72500
O199        O  0.00049942  0.04289157  0.70696814    -0.72400
O200        O  0.50147817  0.45535838  0.70794484    -0.72400
O201        O  0.45746179  0.99880956  0.70621156    -0.72400
O202        O  0.04471521  0.49925723  0.70835867    -0.72600
V203        V  0.00053642  0.49964751  0.78874067     1.35200
V204        V  0.50106710  0.49910402  0.70898606     1.35200
C205        C  0.05928021  0.49938296  0.75022723     0.76900
C206        C  0.44213525  0.49969831  0.74709563     0.76900
C207        C  0.50029346  0.44078378  0.74963858     0.76800
C208        C  0.50061585  0.05792131  0.74849070     0.76800
O209        O  0.02516377  0.24955818  0.57434434    -0.72400
O210        O  0.02527094  0.24746440  0.92944996    -0.72600
O211        O  0.02524173  0.29214637  0.50024541    -0.72500
O212        O  0.02500658  0.20474019  0.00393106    -0.72500
O213        O  0.47503661  0.20512371  0.49883690    -0.72400
O214        O  0.47528923  0.29239353  0.00429042    -0.72400
O215        O  0.47530313  0.25015293  0.92900051    -0.72400
O216        O  0.47517643  0.24746550  0.57397460    -0.72600
V217        V  0.02421559  0.24846413  0.50193876     1.35200
V218        V  0.47615651  0.24876004  0.00150585     1.35200
C219        C  0.50017951  0.24853145  0.59873819     0.76900
C220        C  0.50033124  0.24905236  0.90462309     0.76900
C221        C  0.50029476  0.30711052  0.50283117     0.76800
C222        C  0.49992888  0.19014430  0.50161764     0.76800
O223        O  0.02542563  0.25022144  0.82427343    -0.72400
O224        O  0.02530910  0.24829429  0.67922989    -0.72600
O225        O  0.02520959  0.29300468  0.74987219    -0.72500
O226        O  0.02569603  0.20568481  0.75332806    -0.72500
O227        O  0.47573164  0.20550198  0.75107423    -0.72400
O228        O  0.47521987  0.29296223  0.75186645    -0.72400
O229        O  0.47528368  0.24923085  0.67905195    -0.72400
O230        O  0.47541452  0.24909653  0.82395336    -0.72600
V231        V  0.02443841  0.24932359  0.75170703     1.35200
V232        V  0.47638104  0.24921560  0.75150760     1.35200
C233        C  0.50040993  0.24952590  0.84871919     0.76900
C234        C  0.50025388  0.24864119  0.65456911     0.76900
C235        C  0.50015076  0.30784573  0.74993977     0.76800
C236        C  0.50082477  0.19071251  0.75281739     0.76800
O237        O  0.24888460  0.02751018  0.92791570    -0.72400
O238        O  0.25047274  0.02736406  0.57283778    -0.72600
O239        O  0.29333076  0.02721739  0.99914111    -0.72500
O240        O  0.20582222  0.02741636  0.50150755    -0.72500
O241        O  0.20592411  0.47749069  0.99885563    -0.72400
O242        O  0.29322992  0.47720999  0.50159876    -0.72400
O243        O  0.24913091  0.47733688  0.57253495    -0.72400
O244        O  0.25021054  0.47747856  0.92753841    -0.72600
V245        V  0.24959660  0.02641863  0.00037601     1.35200
V246        V  0.24959727  0.47835623  0.50008803     1.35200
C247        C  0.24970223  0.50252520  0.90312830     0.76900
C248        C  0.25004440  0.50234720  0.59726355     0.76900
C249        C  0.30812605  0.50212806  0.00080043     0.76800
C250        C  0.19090562  0.50246283  0.99968510     0.76800
O251        O  0.24980854  0.47754222  0.82254817    -0.72400
O252        O  0.25095075  0.47737445  0.67761896    -0.72600
O253        O  0.29414782  0.47687783  0.75172648    -0.72500
O254        O  0.20682914  0.47807907  0.74891143    -0.72500
O255        O  0.20722124  0.02801273  0.75017770    -0.72400
O256        O  0.29462669  0.02692143  0.74982040    -0.72400
O257        O  0.25061476  0.02742467  0.67773453    -0.72400
O258        O  0.25102906  0.02757074  0.82274208    -0.72600
V259        V  0.25046817  0.47844758  0.75013003     1.35200
V260        V  0.25090289  0.02651962  0.75015840     1.35200
C261        C  0.25016349  0.50257031  0.84724069     0.76900
C262        C  0.25059372  0.50237056  0.65310112     0.76900
C263        C  0.30919012  0.50170862  0.75108316     0.76800
C264        C  0.19208113  0.50321288  0.74996192     0.76800
C265        C  0.09308688  0.49971636  0.75084774    -0.06700
C266        C  0.10812953  0.02457534  0.77415446    -0.17800
C267        C  0.14027030  0.02663828  0.77422783     0.10500
C268        C  0.15798288  0.50313501  0.75063889    -0.06600
C269        C  0.14267100  0.47830013  0.72727798    -0.17900
C270        C  0.11057748  0.47635172  0.72717374     0.10500
S271        S  0.15692551  0.05957893  0.80574131    -0.32800
S272        S  0.09330009  0.44312556  0.69736092    -0.32900
H273        H  0.06922795  0.44054348  0.73278187     0.28500
H274        H  0.18029108  0.04262065  0.83011297     0.28500
H275        H  0.09469097  0.04265467  0.79213655     0.19100
H276        H  0.15580108  0.46015917  0.70889891     0.19100
C277        C  0.40794270  0.50007313  0.74644509    -0.06700
C278        C  0.39236570  0.48951353  0.78999176    -0.17800
C279        C  0.36023541  0.48987055  0.79260142     0.10500
C280        C  0.34300105  0.50130902  0.75105416    -0.06600
C281        C  0.35824851  0.01187606  0.70755021    -0.17900
C282        C  0.39045961  0.01101591  0.70426743     0.10500
S283        S  0.34258224  0.47579557  0.85016874    -0.32800
S284        S  0.40837377  0.02435251  0.64618999    -0.32900
H285        H  0.38132093  0.03263928  0.61989610     0.28500
H286        H  0.31816386  0.49707431  0.85017372     0.28500
H287        H  0.40529976  0.48083988  0.82240682     0.19100
H288        H  0.34469505  0.02032469  0.67570662     0.19100
C289        C  0.49954466  0.40677529  0.74994645    -0.06700
C290        C  0.01777875  0.39064332  0.71466041    -0.17800
C291        C  0.01827329  0.35846186  0.71343621     0.10500
C292        C  0.49993765  0.34178067  0.74813201    -0.06600
C293        C  0.48109146  0.35786244  0.78256138    -0.17900
C294        C  0.48079205  0.39016067  0.78410155     0.10500
S295        S  0.04212861  0.34030161  0.66569346    -0.32800
S296        S  0.45520541  0.40975554  0.82790661    -0.32900
H297        H  0.44442077  0.38338405  0.85309474     0.28500
H298        H  0.02276596  0.31497014  0.65713443     0.28500
H299        H  0.03183118  0.40321811  0.68780558     0.19100
H300        H  0.46684251  0.34499155  0.80868954     0.19100
C301        C  0.50031559  0.09181899  0.74895278    -0.06700
C302        C  0.02210068  0.10727619  0.77913582    -0.17800
C303        C  0.02245138  0.13943512  0.78209583     0.10500
C304        C  0.50093811  0.15673523  0.75330049    -0.06600
C305        C  0.47906461  0.14118871  0.72334336    -0.17900
C306        C  0.47840203  0.10905272  0.72116915     0.10500
S307        S  0.04986648  0.15679603  0.82521401    -0.32800
S308        S  0.44825959  0.09146234  0.68402940    -0.32900
H309        H  0.44272124  0.06783465  0.71937947     0.28500
H310        H  0.02942185  0.17947376  0.84337270     0.28500
H311        H  0.03874998  0.09416368  0.80109582     0.19100
H312        H  0.46233802  0.15417955  0.70136302     0.19100
C313        C  0.09179155  0.99843761  0.99836987    -0.06700
C314        C  0.10672738  0.02338595  0.97566889    -0.17800
C315        C  0.13885383  0.02551863  0.97564926     0.10500
C316        C  0.15675539  0.50205548  0.99881080    -0.06600
C317        C  0.14159254  0.47704269  0.52148163    -0.17900
C318        C  0.10944757  0.47497279  0.52146310     0.10500
S319        S  0.15528240  0.05839978  0.94433752    -0.32800
S320        S  0.09240834  0.44147639  0.55028340    -0.32900
H321        H  0.06735684  0.43950735  0.51633082     0.28500
H322        H  0.17885352  0.04149932  0.92051121     0.28500
H323        H  0.09319951  0.04146240  0.95792128     0.19100
H324        H  0.15488704  0.45887716  0.53940122     0.19100
C325        C  0.40690726  0.50071262  0.99721206    -0.06700
C326        C  0.39112929  0.48329428  0.53370668    -0.17800
C327        C  0.35900486  0.48388255  0.53647886     0.10500
C328        C  0.34201980  0.50189154  0.00143080    -0.06600
C329        C  0.35773192  0.01953340  0.96522500    -0.17900
C330        C  0.38989295  0.01921726  0.96280935     0.10500
S331        S  0.34115870  0.46221222  0.58690781    -0.32800
S332        S  0.40777945  0.04376366  0.91630978    -0.32900
H333        H  0.43130777  0.05365682  0.94952419     0.28500
H334        H  0.31797570  0.48406317  0.59681596     0.28500
H335        H  0.40395842  0.46929092  0.56062380     0.19100
H336        H  0.34483265  0.03353790  0.93839647     0.19100
C337        C  0.50039757  0.34098480  0.50328356    -0.06700
C338        C  0.51794945  0.35625517  0.96645891    -0.17800
C339        C  0.51756855  0.38835359  0.96285553     0.10500
C340        C  0.49987970  0.40586685  0.49776319    -0.06600
C341        C  0.98285809  0.39052325  0.53533002    -0.17900
C342        C  0.98284913  0.35838658  0.53842518     0.10500
S343        S  0.54141205  0.40560001  0.91477057    -0.32800
S344        S  0.96073430  0.34123048  0.58905970    -0.32900
H345        H  0.98024851  0.31581734  0.59655390     0.28500
H346        H  0.51610257  0.41691088  0.88688448     0.28500
H347        H  0.53155949  0.34302820  0.93952465     0.19100
H348        H  0.96942747  0.40368721  0.56258706     0.19100
C349        C  0.49962931  0.15637311  0.50153802    -0.06700
C350        C  0.99049026  0.14117849  0.95683207    -0.17800
C351        C  0.99093680  0.10906076  0.95352766     0.10500
C352        C  0.49986269  0.09135863  0.49668894    -0.06600
C353        C  0.50876190  0.10691125  0.54166329    -0.17900
C354        C  0.50877885  0.13907996  0.54446828     0.10500
S355        S  0.97945342  0.09258083  0.89320750    -0.32800
S356        S  0.52014143  0.15672742  0.60408234    -0.32900
H357        H  0.49905493  0.18124471  0.60114357     0.28500
H358        H  0.00861679  0.07942185  0.88465098     0.28500
H359        H  0.98359771  0.15451736  0.92374417     0.19100
H360        H  0.51571040  0.09397474  0.57512140     0.19100
O361        O  0.04307188  0.49711634  0.03947284    -0.72400
O362        O  0.45575725  0.99984163  0.03854926    -0.72600
O363        O  0.99819934  0.95487317  0.03893289    -0.72500
O364        O  0.50058635  0.54234892  0.03855269    -0.72500
O365        O  0.99875780  0.54186427  0.45584050    -0.72400
O366        O  0.50027204  0.95471588  0.45608119    -0.72400
O367        O  0.45573097  0.49796862  0.45557142    -0.72400
O368        O  0.04316228  0.99911136  0.45646028    -0.72600
V369        V  0.99939568  0.99854986  0.03731516     1.35200
V370        V  0.49946517  0.99835014  0.45760118     1.35200
C371        C  0.05794293  0.49804345  0.49812308     0.76900
C372        C  0.44086559  0.99945898  0.49695565     0.76900
C373        C  0.49948855  0.93988391  0.99746539     0.76800
C374        C  0.99967965  0.55712208  0.99693021     0.76800
O375        O  0.04423925  0.49941902  0.29147365    -0.72400
O376        O  0.45678467  0.00013343  0.28902413    -0.72600
O377        O  0.99999372  0.95599480  0.29088262    -0.72500
O378        O  0.50103965  0.54325694  0.29004990    -0.72500
O379        O  0.00049876  0.54289110  0.20696793    -0.72400
O380        O  0.50147878  0.95535880  0.20794619    -0.72400
O381        O  0.45746017  0.49880873  0.20621214    -0.72400
O382        O  0.04471605  0.99925796  0.20836078    -0.72600
V383        V  0.00053669  0.99964677  0.28874195     1.35200
V384        V  0.50106786  0.99910444  0.20898739     1.35200
C385        C  0.05928069  0.99938342  0.25022963     0.76900
C386        C  0.44213575  0.99969919  0.24709567     0.76900
C387        C  0.50029384  0.94078415  0.24963995     0.76800
C388        C  0.50061421  0.55792134  0.24848887     0.76800
O389        O  0.02516474  0.74955838  0.07433926    -0.72400
O390        O  0.02527164  0.74746426  0.42944463    -0.72600
O391        O  0.02524296  0.79214633  0.00023993    -0.72500
O392        O  0.02500713  0.70474007  0.50392577    -0.72500
O393        O  0.47503789  0.70512402  0.99883321    -0.72400
O394        O  0.47529028  0.79239348  0.50428781    -0.72400
O395        O  0.47530350  0.75015319  0.42899741    -0.72400
O396        O  0.47517766  0.74746563  0.07397123    -0.72600
V397        V  0.02421667  0.74846405  0.00193372     1.35200
V398        V  0.47615709  0.74876000  0.50150270     1.35200
C399        C  0.50018064  0.74853151  0.09873504     0.76900
C400        C  0.50033153  0.74905243  0.40461984     0.76900
C401        C  0.50029658  0.80711068  0.00282904     0.76800
C402        C  0.49993012  0.69014449  0.00161427     0.76800
O403        O  0.02542641  0.75022129  0.32426832    -0.72400
O404        O  0.02531003  0.74829468  0.17922475    -0.72600
O405        O  0.02521032  0.79300470  0.24986759    -0.72500
O406        O  0.02569722  0.70568498  0.25332259    -0.72500
O407        O  0.47573140  0.70550252  0.25107038    -0.72400
O408        O  0.47522097  0.79296275  0.25186383    -0.72400
O409        O  0.47528445  0.74923165  0.17904857    -0.72400
O410        O  0.47541480  0.74909679  0.32395005    -0.72600
V411        V  0.02443931  0.74932369  0.25170193     1.35200
V412        V  0.47638152  0.74921613  0.25150428     1.35200
C413        C  0.50041018  0.74952598  0.34871600     0.76900
C414        C  0.50025475  0.74864144  0.15456597     0.76900
C415        C  0.50015207  0.80784595  0.24993770     0.76800
C416        C  0.50082424  0.69071268  0.25281397     0.76800
O417        O  0.24888290  0.52751037  0.42791780    -0.72400
O418        O  0.25047305  0.52736336  0.07283986    -0.72600
O419        O  0.29333035  0.52721752  0.49914100    -0.72500
O420        O  0.20582187  0.52741571  0.00151132    -0.72500
O421        O  0.20592475  0.97749126  0.49885286    -0.72400
O422        O  0.29323048  0.97720984  0.00159805    -0.72400
O423        O  0.24913078  0.97733665  0.07253291    -0.72400
O424        O  0.25021154  0.97747939  0.42753632    -0.72600
V425        V  0.24959621  0.52641886  0.50037819     1.35200
V426        V  0.24959784  0.97835598  0.00008594     1.35200
C427        C  0.24970348  0.00252604  0.40312622     0.76900
C428        C  0.25004381  0.00234702  0.09726146     0.76900
C429        C  0.30812655  0.00212891  0.50079954     0.76800
C430        C  0.19090618  0.00246331  0.49968145     0.76800
O431        O  0.24981055  0.97754289  0.32254641    -0.72400
O432        O  0.25095022  0.97737453  0.17761720    -0.72600
O433        O  0.29414862  0.97687870  0.25172277    -0.72500
O434        O  0.20682985  0.97807914  0.24891222    -0.72500
O435        O  0.20722005  0.52801265  0.25017960    -0.72400
O436        O  0.29462563  0.52692080  0.24982245    -0.72400
O437        O  0.25061380  0.52742416  0.17773649    -0.72400
O438        O  0.25102789  0.52757067  0.32274400    -0.72600
V439        V  0.25046892  0.97844799  0.25012833     1.35200
V440        V  0.25090178  0.52651932  0.25016035     1.35200
C441        C  0.25016480  0.00257107  0.34723865     0.76900
C442        C  0.25059332  0.00237053  0.15309906     0.76900
C443        C  0.30919067  0.00170966  0.25108008     0.76800
C444        C  0.19208164  0.00321289  0.24996198     0.76800
C445        C  0.09308719  0.99971680  0.25085102    -0.06700
C446        C  0.10812879  0.52457023  0.27416692    -0.17800
C447        C  0.14026962  0.52663342  0.27423974     0.10500
C448        C  0.15798331  0.00313481  0.25064061    -0.06600
C449        C  0.14267122  0.97829603  0.22729169    -0.17900
C450        C  0.11057779  0.97634771  0.22718837     0.10500
S451        S  0.15692548  0.55956807  0.30576953    -0.32800
S452        S  0.09330002  0.94311681  0.19739086    -0.32900
H453        H  0.06922733  0.94054121  0.23281215     0.28500
H454        H  0.18029285  0.54260542  0.33012818     0.28500
H455        H  0.09469080  0.54264548  0.29215891     0.19100
H456        H  0.15580145  0.96015133  0.20892047     0.19100
C457        C  0.40794324  0.00007446  0.24644443    -0.06700
C458        C  0.39236585  0.98951519  0.28999095    -0.17800
C459        C  0.36023555  0.98987236  0.29259976     0.10500
C460        C  0.34300156  0.00131046  0.25105173    -0.06600
C461        C  0.35824708  0.51187514  0.20755319    -0.17900
C462        C  0.39045814  0.51101489  0.20426968     0.10500
S463        S  0.34258182  0.97579804  0.35016702    -0.32800
S464        S  0.40837177  0.52435142  0.14619173    -0.32900
H465        H  0.38131869  0.53263686  0.11989740     0.28500
H466        H  0.31816413  0.99707758  0.35017143     0.28500
H467        H  0.40529950  0.98084171  0.32240626     0.19100
H468        H  0.34469351  0.52032388  0.17571014     0.19100
C469        C  0.49954566  0.90677566  0.24994741    -0.06700
C470        C  0.01778045  0.89064343  0.21465897    -0.17800
C471        C  0.01827455  0.85846193  0.21343359     0.10500
C472        C  0.49993917  0.84178092  0.24813173    -0.06600
C473        C  0.48109333  0.85786230  0.28256184    -0.17900
C474        C  0.48079368  0.89016041  0.28410328     0.10500
S475        S  0.04213011  0.84030207  0.16569073    -0.32800
S476        S  0.45520754  0.90975458  0.32790991    -0.32900
H477        H  0.44443224  0.88338335  0.35310996     0.28500
H478        H  0.02276699  0.81497115  0.15712992     0.28500
H479        H  0.03183281  0.90321810  0.18780575     0.19100
H480        H  0.46684381  0.84499049  0.30869083     0.19100
C481        C  0.50031412  0.59181906  0.24895052    -0.06700
C482        C  0.02210192  0.60727644  0.27913236    -0.17800
C483        C  0.02245304  0.63943546  0.28209102     0.10500
C484        C  0.50093717  0.65673536  0.25329748    -0.06600
C485        C  0.47906424  0.64118906  0.22333832    -0.17900
C486        C  0.47840162  0.60905287  0.22116474     0.10500
S487        S  0.04986908  0.65679662  0.32520734    -0.32800
S488        S  0.44826013  0.59146263  0.18402249    -0.32900
H489        H  0.44272039  0.56783531  0.21937267     0.28500
H490        H  0.02942476  0.67947444  0.34336672     0.28500
H491        H  0.03875091  0.59416424  0.30109205     0.19100
H492        H  0.46233952  0.65417919  0.20135766     0.19100
C493        C  0.09179095  0.49843772  0.49837450    -0.06700
C494        C  0.10672659  0.52338837  0.47568022    -0.17800
C495        C  0.13885303  0.52552141  0.47566124     0.10500
C496        C  0.15675602  0.00205582  0.49880621    -0.06600
C497        C  0.14159290  0.97704432  0.02148188    -0.17900
C498        C  0.10944819  0.97497437  0.02146421     0.10500
S499        S  0.15528089  0.55840628  0.44435913    -0.32800
S500        S  0.09240868  0.94148069  0.05029252    -0.32900
H501        H  0.06735833  0.93950789  0.01633811     0.28500
H502        H  0.17885143  0.54150863  0.42052597     0.28500
H503        H  0.09319868  0.54146621  0.45793744     0.19100
H504        H  0.15488856  0.95887869  0.03940766     0.19100
C505        C  0.40690777  0.00071264  0.49721195    -0.06700
C506        C  0.39112943  0.98329470  0.03371015    -0.17800
C507        C  0.35900498  0.98388265  0.03648121     0.10500
C508        C  0.34202029  0.00189234  0.50143035    -0.06600
C509        C  0.35773114  0.51953303  0.46522257    -0.17900
C510        C  0.38989205  0.51921675  0.46280549     0.10500
S511        S  0.34115826  0.96221193  0.08690911    -0.32800
S512        S  0.40777819  0.54376287  0.41630517    -0.32900
H513        H  0.43130685  0.55365614  0.44951880     0.28500
H514        H  0.31797486  0.98406257  0.09681648     0.28500
H515        H  0.40395856  0.96929095  0.06062812     0.19100
H516        H  0.34483111  0.53353811  0.43839346     0.19100
C517        C  0.50039948  0.84098497  0.00328342    -0.06700
C518        C  0.51795086  0.85625511  0.46645748    -0.17800
C519        C  0.51756995  0.88835347  0.46285453     0.10500
C520        C  0.49988117  0.90586709  0.99776633    -0.06600
C521        C  0.98285857  0.89052301  0.03532536    -0.17900
C522        C  0.98284978  0.85838631  0.03841980     0.10500
S523        S  0.54141364  0.90560039  0.41477039    -0.32800
S524        S  0.96073440  0.84122974  0.08905321    -0.32900
H525        H  0.98024935  0.81581729  0.09654870     0.28500
H526        H  0.51610428  0.91691140  0.38688418     0.28500
H527        H  0.53156138  0.84302783  0.43952195     0.19100
H528        H  0.96942762  0.90368657  0.06258194     0.19100
C529        C  0.49963026  0.65637339  0.00153463    -0.06700
C530        C  0.99049101  0.64117821  0.45682794    -0.17800
C531        C  0.99093736  0.60906032  0.45352474     0.10500
C532        C  0.49986290  0.59135878  0.99668755    -0.06600
C533        C  0.50876286  0.60691164  0.04166098    -0.17900
C534        C  0.50878032  0.63908023  0.04446544     0.10500
S535        S  0.97945459  0.59257981  0.39320467    -0.32800
S536        S  0.52014387  0.65672811  0.10407860    -0.32900
H537        H  0.49905721  0.68124527  0.10114056     0.28500
H538        H  0.00861808  0.57942077  0.38464944     0.28500
H539        H  0.98359936  0.65451630  0.42374063     0.19100
H540        H  0.51571195  0.59397471  0.07512065     0.19100
O541        O  0.04307177  0.49711628  0.53947215    -0.72400
O542        O  0.45575715  0.99984103  0.53854649    -0.72600
O543        O  0.99819939  0.95487315  0.53893209    -0.72500
O544        O  0.50058656  0.54234878  0.53855043    -0.72500
O545        O  0.99875783  0.54186433  0.95584164    -0.72400
O546        O  0.50027152  0.95471614  0.95608366    -0.72400
O547        O  0.45573115  0.49796876  0.95557323    -0.72400
O548        O  0.04316203  0.99911101  0.95646050    -0.72600
V549        V  0.99939560  0.99854984  0.53731444     1.35200
V550        V  0.49946496  0.99835037  0.95760344     1.35200
C551        C  0.05794296  0.49804355  0.99812369     0.76900
C552        C  0.44086555  0.99945967  0.99695851     0.76900
C553        C  0.49948877  0.93988362  0.49746289     0.76800
C554        C  0.99967977  0.55712207  0.49692905     0.76800
O555        O  0.04424000  0.49941900  0.79147247    -0.72400
O556        O  0.45678445  0.00013309  0.78902326    -0.72600
O557        O  0.99999357  0.95599488  0.79088113    -0.72500
O558        O  0.50104051  0.54325669  0.79005038    -0.72500
O559        O  0.00049983  0.54289131  0.70696682    -0.72400
O560        O  0.50147826  0.95535871  0.70794503    -0.72400
O561        O  0.45746118  0.49880861  0.70621210    -0.72400
O562        O  0.04471567  0.99925817  0.70835915    -0.72600
V563        V  0.00053656  0.99964684  0.78874071     1.35200
V564        V  0.50106768  0.99910438  0.70898662     1.35200
C565        C  0.05928043  0.99938358  0.75022790     0.76900
C566        C  0.44213556  0.99969915  0.74709475     0.76900
C567        C  0.50029341  0.94078396  0.74963872     0.76800
C568        C  0.50061518  0.55792115  0.74848937     0.76800
O569        O  0.02516477  0.74955838  0.57433897    -0.72400
O570        O  0.02527207  0.74746419  0.92944484    -0.72600
O571        O  0.02524269  0.79214637  0.50023969    -0.72500
O572        O  0.02500725  0.70474002  0.00392622    -0.72500
O573        O  0.47503765  0.70512376  0.49883341    -0.72400
O574        O  0.47529069  0.79239376  0.00428781    -0.72400
O575        O  0.47530415  0.75015349  0.92899721    -0.72400
O576        O  0.47517771  0.74746541  0.57397145    -0.72600
V577        V  0.02421647  0.74846410  0.50193344     1.35200
V578        V  0.47615739  0.74876028  0.00150252     1.35200
C579        C  0.50018082  0.74853127  0.59873496     0.76900
C580        C  0.50033227  0.74905258  0.90461988     0.76900
C581        C  0.50029607  0.80711046  0.50282871     0.76800
C582        C  0.49992993  0.69014430  0.50161379     0.76800
O583        O  0.02542694  0.75022162  0.82426821    -0.72400
O584        O  0.02531035  0.74829482  0.67922453    -0.72600
O585        O  0.02521054  0.79300496  0.74986711    -0.72500
O586        O  0.02569784  0.70568521  0.75332251    -0.72500
O587        O  0.47573237  0.70550222  0.75107058    -0.72400
O588        O  0.47522132  0.79296242  0.75186372    -0.72400
O589        O  0.47528494  0.74923125  0.67904869    -0.72400
O590        O  0.47541560  0.74909659  0.82395010    -0.72600
V591        V  0.02443974  0.74932393  0.75170173     1.35200
V592        V  0.47638218  0.74921581  0.75150434     1.35200
C593        C  0.50041099  0.74952601  0.84871599     0.76900
C594        C  0.50025515  0.74864116  0.65456590     0.76900
C595        C  0.50015225  0.80784578  0.74993735     0.76800
C596        C  0.50082535  0.69071251  0.75281413     0.76800
O597        O  0.24888328  0.52750965  0.92791775    -0.72400
O598        O  0.25047313  0.52736384  0.57284002    -0.72600
O599        O  0.29333048  0.52721674  0.99914124    -0.72500
O600        O  0.20582170  0.52741613  0.50151174    -0.72500
O601        O  0.20592474  0.97749068  0.99885296    -0.72400
O602        O  0.29323047  0.97721006  0.50159818    -0.72400
O603        O  0.24913064  0.97733709  0.57253290    -0.72400
O604        O  0.25021144  0.97747908  0.92753623    -0.72600
V605        V  0.24959636  0.52641824  0.00037809     1.35200
V606        V  0.24959784  0.97835636  0.50008598     1.35200
C607        C  0.24970344  0.00252577  0.90312620     0.76900
C608        C  0.25004393  0.00234745  0.59726141     0.76900
C609        C  0.30812648  0.00212874  0.00080013     0.76800
C610        C  0.19090608  0.00246270  0.99968114     0.76800
O611        O  0.24981033  0.97754282  0.82254617    -0.72400
O612        O  0.25095000  0.97737485  0.67761697    -0.72600
O613        O  0.29414837  0.97687872  0.75172246    -0.72500
O614        O  0.20682959  0.97807938  0.74891191    -0.72500
O615        O  0.20722095  0.52801249  0.75018012    -0.72400
O616        O  0.29462652  0.52692051  0.74982258    -0.72400
O617        O  0.25061455  0.52742428  0.67773680    -0.72400
O618        O  0.25102885  0.52757010  0.82274428    -0.72600
V619        V  0.25046868  0.97844812  0.75012808     1.35200
V620        V  0.25090267  0.52651909  0.75016066     1.35200
C621        C  0.25016463  0.00257093  0.84723860     0.76900
C622        C  0.25059329  0.00237090  0.65309899     0.76900
C623        C  0.30919049  0.00170962  0.75107999     0.76800
C624        C  0.19208143  0.00321315  0.74996152     0.76800
C625        C  0.09308693  0.99971705  0.75084910    -0.06700
C626        C  0.10812954  0.52457057  0.77416590    -0.17800
C627        C  0.14027044  0.52663351  0.77423924     0.10500
C628        C  0.15798303  0.00313523  0.75063961    -0.06600
C629        C  0.14267110  0.97829597  0.72729141    -0.17900
C630        C  0.11057758  0.97634772  0.72718774     0.10500
S631        S  0.15692629  0.55956813  0.80576924    -0.32800
S632        S  0.09329999  0.94311642  0.69739109    -0.32900
H633        H  0.06922696  0.94054134  0.73281185     0.28500
H634        H  0.18029325  0.54260529  0.83012863     0.28500
H635        H  0.09469183  0.54264559  0.79215679     0.19100
H636        H  0.15580102  0.96015152  0.70892170     0.19100
C637        C  0.40794307  0.00007436  0.74644372    -0.06700
C638        C  0.39236576  0.98951474  0.78998996    -0.17800
C639        C  0.36023554  0.98987189  0.79259909     0.10500
C640        C  0.34300135  0.00131041  0.75105120    -0.06600
C641        C  0.35824775  0.51187450  0.70755218    -0.17900
C642        C  0.39045903  0.51101421  0.70426922     0.10500
S643        S  0.34258194  0.97579724  0.85016622    -0.32800
S644        S  0.40837263  0.52435048  0.64619099    -0.32900
H645        H  0.38131952  0.53263469  0.61989578     0.28500
H646        H  0.31816409  0.99707659  0.85017101     0.28500
H647        H  0.40529975  0.98084080  0.82240567     0.19100
H648        H  0.34469516  0.52032233  0.67571137     0.19100
C649        C  0.49954515  0.90677545  0.74994618    -0.06700
C650        C  0.01777984  0.89064357  0.71465694    -0.17800
C651        C  0.01827398  0.85846206  0.71343185     0.10500
C652        C  0.49993926  0.84178079  0.74813079    -0.06600
C653        C  0.48109363  0.85786192  0.78256223    -0.17900
C654        C  0.48079402  0.89016029  0.78410288     0.10500
S655        S  0.04212891  0.84030208  0.66568826    -0.32800
S656        S  0.45520848  0.90975430  0.82791081    -0.32900
H657        H  0.44443272  0.88338304  0.85311007     0.28500
H658        H  0.02276585  0.81497095  0.65712878     0.28500
H659        H  0.03183191  0.90321816  0.68780340     0.19100
H660        H  0.46684615  0.84499136  0.80868941     0.19100
C661        C  0.50031519  0.59181884  0.74895120    -0.06700
C662        C  0.02210231  0.60727651  0.77913241    -0.17800
C663        C  0.02245350  0.63943552  0.78209109     0.10500
C664        C  0.50093822  0.65673523  0.75329743    -0.06600
C665        C  0.47906561  0.64118876  0.72333851    -0.17900
C666        C  0.47840271  0.60905277  0.72116478     0.10500
S667        S  0.04986926  0.65679667  0.82520790    -0.32800
S668        S  0.44826151  0.59146244  0.68402208    -0.32900
H669        H  0.44272156  0.56783496  0.71937183     0.28500
H670        H  0.02942492  0.67947462  0.84336674     0.28500
H671        H  0.03875117  0.59416419  0.80109278     0.19100
H672        H  0.46233971  0.65417987  0.70135601     0.19100
C673        C  0.09179095  0.49843788  0.99837486    -0.06700
C674        C  0.10672649  0.52338905  0.97568189    -0.17800
C675        C  0.13885296  0.52552186  0.97566249     0.10500
C676        C  0.15675595  0.00205502  0.99880575    -0.06600
C677        C  0.14159307  0.97704468  0.52148161    -0.17900
C678        C  0.10944828  0.97497478  0.52146376     0.10500
S679        S  0.15528079  0.55840732  0.94436196    -0.32800
S680        S  0.09240888  0.94148071  0.55029111    -0.32900
H681        H  0.06735845  0.93950830  0.51633680     0.28500
H682        H  0.17885095  0.54151003  0.92052708     0.28500
H683        H  0.09319863  0.54146722  0.95794061     0.19100
H684        H  0.15488831  0.95887946  0.53940615     0.19100
C685        C  0.40690780  0.00071336  0.99721508    -0.06700
C686        C  0.39112960  0.98329502  0.53370894    -0.17800
C687        C  0.35900510  0.98388342  0.53648065     0.10500
C688        C  0.34202020  0.00189247  0.00143156    -0.06600
C689        C  0.35773106  0.51953220  0.96522303    -0.17900
C690        C  0.38989218  0.51921596  0.96280656     0.10500
S691        S  0.34115868  0.96221419  0.58691068    -0.32800
S692        S  0.40777809  0.54376194  0.91630566    -0.32900
H693        H  0.43130656  0.55365569  0.94951931     0.28500
H694        H  0.31797533  0.98406515  0.59681658     0.28500
H695        H  0.40395836  0.96929248  0.56062677     0.19100
H696        H  0.34483202  0.53353587  0.93839572     0.19100
C697        C  0.50039912  0.84098466  0.50328201    -0.06700
C698        C  0.51795142  0.85625550  0.96645854    -0.17800
C699        C  0.51757008  0.88835419  0.96285675     0.10500
C700        C  0.49988099  0.90586681  0.49776410    -0.06600
C701        C  0.98285801  0.89052318  0.53532418    -0.17900
C702        C  0.98284911  0.85838644  0.53841857     0.10500
S703        S  0.54141380  0.90560146  0.91477285    -0.32800
S704        S  0.96073306  0.84122999  0.58905130    -0.32900
H705        H  0.98024802  0.81581766  0.59654792     0.28500
H706        H  0.51610437  0.91691197  0.88688622     0.28500
H707        H  0.53156044  0.84302993  0.93952569     0.19100
H708        H  0.96942706  0.90368658  0.56257982     0.19100
C709        C  0.49963027  0.65637316  0.50153383    -0.06700
C710        C  0.99049072  0.64117809  0.95682884    -0.17800
C711        C  0.99093691  0.60906026  0.95352582     0.10500
C712        C  0.49986311  0.59135866  0.49668534    -0.06600
C713        C  0.50876333  0.60691131  0.54165893    -0.17900
C714        C  0.50878063  0.63907992  0.54446389     0.10500
S715        S  0.97945376  0.59257959  0.89320607    -0.32800
S716        S  0.52014452  0.65672742  0.60407722    -0.32900
H717        H  0.49905794  0.68124470  0.60113983     0.28500
H718        H  0.00861729  0.57942088  0.88464994     0.28500
H719        H  0.98359881  0.65451641  0.92374067     0.19100
H720        H  0.51571260  0.59397444  0.57511770     0.19100
O721        O  0.54307315  0.99712130  0.03946960    -0.72400
O722        O  0.95575619  0.49983506  0.03854438    -0.72600
O723        O  0.49819813  0.45487977  0.03893841    -0.72500
O724        O  0.00058638  0.04234271  0.03855696    -0.72500
O725        O  0.49875636  0.04186851  0.45583765    -0.72400
O726        O  0.00027350  0.45471216  0.45607842    -0.72400
O727        O  0.95573304  0.99796485  0.45556976    -0.72400
O728        O  0.54316006  0.49911349  0.45645619    -0.72600
V729        V  0.49939517  0.49855623  0.03731552     1.35200
V730        V  0.99946641  0.49834626  0.45760150     1.35200
C731        C  0.55794305  0.99804655  0.49811737     0.76900
C732        C  0.94086553  0.49945458  0.49695142     0.76900
C733        C  0.99948919  0.43987884  0.99745932     0.76800
C734        C  0.49967984  0.05712713  0.99692764     0.76800
O735        O  0.54424018  0.99942174  0.29148747    -0.72400
O736        O  0.95678348  0.50012849  0.28901534    -0.72600
O737        O  0.49999102  0.45599926  0.29089282    -0.72500
O738        O  0.00103884  0.04325219  0.29004091    -0.72500
O739        O  0.50050477  0.04289559  0.20698010    -0.72400
O740        O  0.00147906  0.45535406  0.20793652    -0.72400
O741        O  0.95746112  0.99880112  0.20620224    -0.72400
O742        O  0.54471510  0.49925847  0.20837072    -0.72600
V743        V  0.50053577  0.49965135  0.28875174     1.35200
V744        V  0.00106514  0.49909986  0.20897626     1.35200
C745        C  0.55927965  0.49938433  0.25023957     0.76900
C746        C  0.94213386  0.49969262  0.24708743     0.76900
C747        C  0.00029458  0.44077991  0.24963090     0.76800
C748        C  0.00061177  0.05791684  0.24848038     0.76800
O749        O  0.52516123  0.24956167  0.07435041    -0.72400
O750        O  0.52526789  0.24747135  0.42945579    -0.72600
O751        O  0.52523919  0.29215167  0.00025477    -0.72500
O752        O  0.52500317  0.20474500  0.50393276    -0.72500
O753        O  0.97503998  0.20511851  0.99883543    -0.72400
O754        O  0.97529174  0.29238830  0.50428099    -0.72400
O755        O  0.97530542  0.25014574  0.42899463    -0.72400
O756        O  0.97517940  0.24746248  0.07396878    -0.72600
V757        V  0.52421315  0.24846944  0.00194477     1.35200
V758        V  0.97615893  0.24875484  0.50150012     1.35200
C759        C  0.00018242  0.24852899  0.09873234     0.76900
C760        C  0.00033350  0.24904510  0.40461716     0.76900
C761        C  0.00029730  0.30710543  0.00282044     0.76800
C762        C  0.99993232  0.19013937  0.00161792     0.76800
O763        O  0.52542267  0.25022905  0.32427957    -0.72400
O764        O  0.52530647  0.24829745  0.17923611    -0.72600
O765        O  0.52520515  0.29300977  0.24987507    -0.72500
O766        O  0.52569522  0.20569019  0.25333837    -0.72500
O767        O  0.97573236  0.20549862  0.25106741    -0.72400
O768        O  0.97522373  0.29295882  0.25186149    -0.72400
O769        O  0.97528633  0.24922815  0.17904589    -0.72400
O770        O  0.97541677  0.24909234  0.32394734    -0.72600
V771        V  0.52443570  0.24932885  0.25171331     1.35200
V772        V  0.97638343  0.24921220  0.25150157     1.35200
C773        C  0.00041220  0.24951937  0.34871325     0.76900
C774        C  0.00025660  0.24863882  0.15456318     0.76900
C775        C  0.00015508  0.30784165  0.24993690     0.76800
C776        C  0.00082498  0.19070811  0.25280861     0.76800
O777        O  0.74888558  0.02750773  0.42791368    -0.72400
O778        O  0.75047049  0.02736066  0.07283584    -0.72600
O779        O  0.79333079  0.02721570  0.49914044    -0.72500
O780        O  0.70582151  0.02741191  0.00150201    -0.72500
O781        O  0.70592412  0.47748919  0.49884977    -0.72400
O782        O  0.79323027  0.47720888  0.00159548    -0.72400
O783        O  0.74913018  0.47733533  0.07253021    -0.72400
O784        O  0.75021089  0.47747786  0.42753344    -0.72600
V785        V  0.74959648  0.02641620  0.50037398     1.35200
V786        V  0.74959752  0.47835462  0.00008330     1.35200
C787        C  0.74970295  0.50252452  0.40312346     0.76900
C788        C  0.75004269  0.50234568  0.09725877     0.76900
C789        C  0.80812608  0.50212797  0.50079627     0.76800
C790        C  0.69090540  0.50246120  0.49967679     0.76800
O791        O  0.74980874  0.47754132  0.32254385    -0.72400
O792        O  0.75094820  0.47737302  0.17761454    -0.72600
O793        O  0.79414652  0.47687591  0.25172011    -0.72500
O794        O  0.70682803  0.47807850  0.24891036    -0.72500
O795        O  0.70722242  0.02801109  0.25017755    -0.72400
O796        O  0.79462784  0.02691637  0.24981677    -0.72400
O797        O  0.75061485  0.02742126  0.17773263    -0.72400
O798        O  0.75103114  0.02756786  0.32274007    -0.72600
V799        V  0.75046698  0.47844636  0.25012580     1.35200
V800        V  0.75090400  0.02651639  0.25015646     1.35200
C801        C  0.75016397  0.50256951  0.34723601     0.76900
C802        C  0.75059172  0.50236907  0.15309644     0.76900
C803        C  0.80918918  0.50170644  0.25107692     0.76800
C804        C  0.69208032  0.50321255  0.24996149     0.76800
C805        C  0.59308596  0.49971679  0.25086085    -0.06700
C806        C  0.60813056  0.02458050  0.27415165    -0.17800
C807        C  0.64027120  0.02664358  0.27422092     0.10500
C808        C  0.65798204  0.50313461  0.25064309    -0.06600
C809        C  0.64266898  0.47829333  0.22730395    -0.17900
C810        C  0.61057583  0.47634461  0.22720431     0.10500
S811        S  0.65692680  0.05959232  0.30571041    -0.32800
S812        S  0.59329690  0.44311021  0.19741951    -0.32900
H813        H  0.56922411  0.44053978  0.23284171     0.28500
H814        H  0.68029159  0.04264018  0.33009564     0.28500
H815        H  0.59469190  0.04266512  0.29212286     0.19100
H816        H  0.65579952  0.46014501  0.20893578     0.19100
C817        C  0.90794151  0.50006786  0.24643779    -0.06700
C818        C  0.89236429  0.48950724  0.28998293    -0.17800
C819        C  0.86023431  0.48986524  0.29259369     0.10500
C820        C  0.84300001  0.50130621  0.25104760    -0.06600
C821        C  0.85824807  0.01187025  0.20754515    -0.17900
C822        C  0.89045923  0.01100908  0.20426135     0.10500
S823        S  0.84258088  0.47578887  0.35015976    -0.32800
S824        S  0.90837296  0.02434772  0.14618481    -0.32900
H825        H  0.88132034  0.03264097  0.11989601     0.28500
H826        H  0.81816334  0.49706854  0.35016731     0.28500
H827        H  0.90529955  0.48083108  0.32239979     0.19100
H828        H  0.84469538  0.02032006  0.17570543     0.19100
C829        C  0.99954726  0.40677142  0.24994026    -0.06700
C830        C  0.51777305  0.39064758  0.21466627    -0.17800
C831        C  0.51826715  0.35846633  0.21344008     0.10500
C832        C  0.99994246  0.34177665  0.24812964    -0.06600
C833        C  0.98109495  0.35785844  0.28255696    -0.17900
C834        C  0.98079385  0.39015670  0.28409464     0.10500
S835        S  0.54212145  0.34030647  0.16569554    -0.32800
S836        S  0.95520459  0.40975180  0.32789540    -0.32900
H837        H  0.94439793  0.38337872  0.35305273     0.28500
H838        H  0.52275887  0.31497487  0.15713725     0.28500
H839        H  0.53182580  0.40322334  0.18780944     0.19100
H840        H  0.96684614  0.34498737  0.30868559     0.19100
C841        C  0.00031145  0.09181431  0.24894349    -0.06700
C842        C  0.52209562  0.10728220  0.27916294    -0.17800
C843        C  0.52244449  0.13944117  0.28212256     0.10500
C844        C  0.00093688  0.15673058  0.25329169    -0.06600
C845        C  0.97905438  0.14118449  0.22335227    -0.17900
C846        C  0.97839007  0.10904864  0.22117799     0.10500
S847        S  0.54984593  0.15680416  0.32526261    -0.32800
S848        S  0.94823654  0.09145900  0.18406236    -0.32900
H849        H  0.94271158  0.06782696  0.21941022     0.28500
H850        H  0.52939688  0.17948469  0.34339779     0.28500
H851        H  0.53873943  0.09417014  0.30113756     0.19100
H852        H  0.96232067  0.15417663  0.20138375     0.19100
C853        C  0.59179137  0.99843788  0.49836560    -0.06700
C854        C  0.60672860  0.02338153  0.47565264    -0.17800
C855        C  0.63885525  0.02551243  0.47563227     0.10500
C856        C  0.65675520  0.50205379  0.49879899    -0.06600
C857        C  0.64159140  0.47704472  0.02147930    -0.17900
C858        C  0.60944652  0.47497631  0.02146288     0.10500
S859        S  0.65528582  0.05838740  0.44430571    -0.32800
S860        S  0.59240583  0.44148553  0.05029859    -0.32900
H861        H  0.56735421  0.43951219  0.01634696     0.28500
H862        H  0.67885780  0.04148192  0.42049123     0.28500
H863        H  0.59320216  0.04145541  0.45789760     0.19100
H864        H  0.65488641  0.45887969  0.03940765     0.19100
C865        C  0.90690760  0.50070901  0.49720639    -0.06700
C866        C  0.89112905  0.48329284  0.03370612    -0.17800
C867        C  0.85900454  0.48388296  0.03647874     0.10500
C868        C  0.84201995  0.50189145  0.50142647    -0.06600
C869        C  0.85773234  0.01952935  0.46521817    -0.17900
C870        C  0.88989357  0.01921180  0.46280076     0.10500
S871        S  0.84115779  0.46221657  0.08691190    -0.32800
S872        S  0.90778014  0.04375593  0.41629758    -0.32900
H873        H  0.93130971  0.05364982  0.44950904     0.28500
H874        H  0.81797532  0.48406882  0.09681576     0.28500
H875        H  0.90395689  0.46929097  0.06062371     0.19100
H876        H  0.84483340  0.03353250  0.43838935     0.19100
C877        C  0.00039947  0.34097964  0.00327302    -0.06700
C878        C  0.01794905  0.35625032  0.46644539    -0.17800
C879        C  0.01756765  0.38834896  0.46284367     0.10500
C880        C  0.99988130  0.40586180  0.99775712    -0.06600
C881        C  0.48285413  0.39052941  0.03533565    -0.17900
C882        C  0.48284490  0.35839258  0.03843206     0.10500
S883        S  0.04140774  0.40559598  0.41475453    -0.32800
S884        S  0.46072682  0.34123750  0.08906370    -0.32900
H885        H  0.48023963  0.31582358  0.09656095     0.28500
H886        H  0.01609648  0.41690926  0.38687568     0.28500
H887        H  0.03155692  0.34302413  0.43950896     0.19100
H888        H  0.46942258  0.40369338  0.06258828     0.19100
C889        C  0.99963263  0.15636833  0.00154017    -0.06700
C890        C  0.49047922  0.14118355  0.45683361    -0.17800
C891        C  0.49092681  0.10906566  0.45352778     0.10500
C892        C  0.99986408  0.09135386  0.99669402    -0.06600
C893        C  0.00875580  0.10690670  0.04167233    -0.17900
C894        C  0.00877357  0.13907554  0.04447599     0.10500
S895        S  0.47943333  0.09258561  0.39321314    -0.32800
S896        S  0.02012667  0.15672366  0.10409450    -0.32900
H897        H  0.99904313  0.18124292  0.10114334     0.28500
H898        H  0.50859449  0.07942464  0.38464545     0.28500
H899        H  0.48358030  0.15452229  0.42375047     0.19100
H900        H  0.01569779  0.09397036  0.07513431     0.19100
O901        O  0.54307305  0.99712121  0.53946786    -0.72400
O902        O  0.95575608  0.49983528  0.53854327    -0.72600
O903        O  0.49819793  0.45487968  0.53893654    -0.72500
O904        O  0.00058606  0.04234268  0.53855634    -0.72500
O905        O  0.49875652  0.04186870  0.95583963    -0.72400
O906        O  0.00027339  0.45471230  0.95607894    -0.72400
O907        O  0.95573281  0.99796514  0.95557096    -0.72400
O908        O  0.54316023  0.49911375  0.95645849    -0.72600
V909        V  0.49939515  0.49855613  0.53731344     1.35200
V910        V  0.99946638  0.49834636  0.95760237     1.35200
C911        C  0.55794300  0.99804632  0.99811895     0.76900
C912        C  0.94086560  0.49945454  0.99695265     0.76900
C913        C  0.99948919  0.43987882  0.49745889     0.76800
C914        C  0.49967938  0.05712685  0.49692581     0.76800
O915        O  0.54423991  0.99942139  0.79148680    -0.72400
O916        O  0.95678432  0.50012838  0.78901350    -0.72600
O917        O  0.49999178  0.45599895  0.79089283    -0.72500
O918        O  0.00103873  0.04325222  0.79003990    -0.72500
O919        O  0.50050490  0.04289557  0.70697981    -0.72400
O920        O  0.00147996  0.45535422  0.70793454    -0.72400
O921        O  0.95746076  0.99880135  0.70620140    -0.72400
O922        O  0.54471612  0.49925831  0.70837133    -0.72600
V923        V  0.50053657  0.49965107  0.78875202     1.35200
V924        V  0.00106613  0.49910004  0.70897469     1.35200
C925        C  0.55928056  0.49938406  0.75024034     0.76900
C926        C  0.94213475  0.49969263  0.74708562     0.76900
C927        C  0.00029535  0.44077995  0.74962882     0.76800
C928        C  0.00061147  0.05791696  0.74847939     0.76800
O929        O  0.52516075  0.24956107  0.57435026    -0.72400
O930        O  0.52526849  0.24747161  0.92945584    -0.72600
O931        O  0.52523895  0.29215125  0.50025486    -0.72500
O932        O  0.52500409  0.20474544  0.00393326    -0.72500
O933        O  0.97503981  0.20511860  0.49883562    -0.72400
O934        O  0.97529167  0.29238821  0.00428097    -0.72400
O935        O  0.97530558  0.25014572  0.92899456    -0.72400
O936        O  0.97517945  0.24746261  0.57396885    -0.72600
V937        V  0.52421258  0.24846902  0.50194464     1.35200
V938        V  0.97615898  0.24875476  0.00150004     1.35200
C939        C  0.00018251  0.24852895  0.59873233     0.76900
C940        C  0.00033369  0.24904507  0.90461716     0.76900
C941        C  0.00029740  0.30710545  0.50282068     0.76800
C942        C  0.99993212  0.19013937  0.50161782     0.76800
O943        O  0.52542309  0.25022893  0.82427931    -0.72400
O944        O  0.52530630  0.24829702  0.67923581    -0.72600
O945        O  0.52520543  0.29300948  0.74987447    -0.72500
O946        O  0.52569524  0.20568992  0.75333834    -0.72500
O947        O  0.97573250  0.20549872  0.75106753    -0.72400
O948        O  0.97522399  0.29295889  0.75186126    -0.72400
O949        O  0.97528649  0.24922816  0.67904589    -0.72400
O950        O  0.97541699  0.24909248  0.82394734    -0.72600
V951        V  0.52443584  0.24932857  0.75171303     1.35200
V952        V  0.97638362  0.24921228  0.75150156     1.35200
C953        C  0.00041242  0.24951942  0.84871324     0.76900
C954        C  0.00025675  0.24863878  0.65456315     0.76900
C955        C  0.00015534  0.30784169  0.74993638     0.76800
C956        C  0.00082509  0.19070817  0.75280863     0.76800
O957        O  0.74888558  0.02750692  0.92791356    -0.72400
O958        O  0.75047104  0.02736103  0.57283604    -0.72600
O959        O  0.79333051  0.02721531  0.99914086    -0.72500
O960        O  0.70582179  0.02741279  0.50150276    -0.72500
O961        O  0.70592426  0.47748909  0.99884987    -0.72400
O962        O  0.79323014  0.47720899  0.50159471    -0.72400
O963        O  0.74913028  0.47733517  0.57252991    -0.72400
O964        O  0.75021133  0.47747750  0.92753374    -0.72600
V965        V  0.74959620  0.02641556  0.00037381     1.35200
V966        V  0.74959737  0.47835473  0.50008296     1.35200
C967        C  0.74970355  0.50252408  0.90312355     0.76900
C968        C  0.75004290  0.50234544  0.59725869     0.76900
C969        C  0.80812622  0.50212787  0.00079696     0.76800
C970        C  0.69090555  0.50246112  0.99967688     0.76800
O971        O  0.74980982  0.47754078  0.82254388    -0.72400
O972        O  0.75094875  0.47737260  0.67761444    -0.72600
O973        O  0.79414739  0.47687538  0.75171960    -0.72500
O974        O  0.70682890  0.47807805  0.74891082    -0.72500
O975        O  0.70722227  0.02801062  0.75017702    -0.72400
O976        O  0.79462762  0.02691608  0.74981770    -0.72400
O977        O  0.75061509  0.02742120  0.67773289    -0.72400
O978        O  0.75103059  0.02756717  0.82274027    -0.72600
V979        V  0.75046784  0.47844588  0.75012577     1.35200
V980        V  0.75090383  0.02651600  0.75015668     1.35200
C981        C  0.75016492  0.50256897  0.84723607     0.76900
C982        C  0.75059223  0.50236868  0.65309640     0.76900
C983        C  0.80919006  0.50170592  0.75107632     0.76800
C984        C  0.69208121  0.50321204  0.74996198     0.76800
C985        C  0.59308692  0.49971620  0.75086154    -0.06700
C986        C  0.60813008  0.02458153  0.77414739    -0.17800
C987        C  0.64027078  0.02664459  0.77421647     0.10500
C988        C  0.65798283  0.50313445  0.75064408    -0.06600
C989        C  0.64266996  0.47829246  0.72730551    -0.17900
C990        C  0.61057651  0.47634408  0.72720622     0.10500
S991        S  0.65692599  0.05959560  0.80570003    -0.32800
S992        S  0.59329773  0.44310927  0.69742221    -0.32900
H993        H  0.56922494  0.44053937  0.73284458     0.28500
H994        H  0.68029034  0.04264519  0.83008968     0.28500
H995        H  0.59469168  0.04266669  0.79211502     0.19100
H996        H  0.65579901  0.46014593  0.70893999     0.19100
C997        C  0.90794234  0.50006772  0.74643591    -0.06700
C998        C  0.89236540  0.48950731  0.78998172    -0.17800
C999        C  0.86023532  0.48986530  0.79259267     0.10500
C1000       C  0.84300090  0.50130566  0.75104669    -0.06600
C1001       C  0.85824776  0.01186989  0.70754497    -0.17900
C1002       C  0.89045883  0.01100898  0.70426089     0.10500
S1003       S  0.84258234  0.47578959  0.85015961    -0.32800
S1004       S  0.90837242  0.02434761  0.64618422    -0.32900
H1005       H  0.88131963  0.03264054  0.61989560     0.28500
H1006       H  0.81816459  0.49706904  0.85016667     0.28500
H1007       H  0.90530026  0.48083183  0.82239728     0.19100
H1008       H  0.84469455  0.02031970  0.67570426     0.19100
C1009       C  0.99954773  0.40677148  0.74993801    -0.06700
C1010       C  0.51777425  0.39064758  0.71466563    -0.17800
C1011       C  0.51826774  0.35846594  0.71343989     0.10500
C1012       C  0.99994272  0.34177669  0.74812845    -0.06600
C1013       C  0.98109503  0.35785872  0.78255511    -0.17900
C1014       C  0.98079396  0.39015697  0.78409223     0.10500
S1015       S  0.54212213  0.34030615  0.66569519    -0.32800
S1016       S  0.95520422  0.40975238  0.82789181    -0.32900
H1017       H  0.94439815  0.38337953  0.85305050     0.28500
H1018       H  0.52275935  0.31497468  0.65713677     0.28500
H1019       H  0.53182518  0.40322148  0.68781300     0.19100
H1020       H  0.96684592  0.34498778  0.80868378     0.19100
C1021       C  0.00031136  0.09181435  0.74894296    -0.06700
C1022       C  0.52209602  0.10728187  0.77916273    -0.17800
C1023       C  0.52244472  0.13944103  0.78212219     0.10500
C1024       C  0.00093684  0.15673065  0.75329138    -0.06600
C1025       C  0.97905389  0.14118470  0.72335272    -0.17900
C1026       C  0.97838947  0.10904889  0.72117823     0.10500
S1027       S  0.54984676  0.15680391  0.82526143    -0.32800
S1028       S  0.94823543  0.09145934  0.68406361    -0.32900
H1029       H  0.94271105  0.06782697  0.71941112     0.28500
H1030       H  0.52939782  0.17948434  0.84339738     0.28500
H1031       H  0.53873892  0.09417070  0.80113518     0.19100
H1032       H  0.96231972  0.15417707  0.70138466     0.19100
C1033       C  0.59179130  0.99843740  0.99836651    -0.06700
C1034       C  0.60672880  0.02337935  0.97564949    -0.17800
C1035       C  0.63885531  0.02551003  0.97562817     0.10500
C1036       C  0.65675536  0.50205375  0.99879981    -0.06600
C1037       C  0.64159115  0.47704449  0.52147744    -0.17900
C1038       C  0.60944629  0.47497590  0.52146040     0.10500
S1039       S  0.65528634  0.05838239  0.94429500    -0.32800
S1040       S  0.59240562  0.44148489  0.55029544    -0.32900
H1041       H  0.56735397  0.43951188  0.51634384     0.28500
H1042       H  0.67885849  0.04147495  0.92048474     0.28500
H1043       H  0.59320175  0.04145330  0.95789056     0.19100
H1044       H  0.65488615  0.45887931  0.53940571     0.19100
C1045       C  0.90690767  0.50070911  0.99720761    -0.06700
C1046       C  0.89112890  0.48329299  0.53370486    -0.17800
C1047       C  0.85900452  0.48388304  0.53647785     0.10500
C1048       C  0.84202006  0.50189138  0.00142748    -0.06600
C1049       C  0.85773222  0.01953013  0.96522001    -0.17900
C1050       C  0.88989354  0.01921274  0.96280317     0.10500
S1051       S  0.84115780  0.46221683  0.58691118    -0.32800
S1052       S  0.90778015  0.04375788  0.91630147    -0.32900
H1053       H  0.93130995  0.05365086  0.94951325     0.28500
H1054       H  0.81797538  0.48406911  0.59681504     0.28500
H1055       H  0.90395732  0.46929055  0.56062370     0.19100
H1056       H  0.84483372  0.03353326  0.93839256     0.19100
C1057       C  0.00039973  0.34097964  0.50327323    -0.06700
C1058       C  0.01794838  0.35625031  0.96644446    -0.17800
C1059       C  0.01756696  0.38834903  0.96284297     0.10500
C1060       C  0.99988133  0.40586184  0.49775722    -0.06600
C1061       C  0.48285414  0.39052931  0.53533442    -0.17900
C1062       C  0.48284492  0.35839260  0.53843164     0.10500
S1063       S  0.04140644  0.40559599  0.91475289    -0.32800
S1064       S  0.46072703  0.34123777  0.58906371    -0.32900
H1065       H  0.48023974  0.31582379  0.59656112     0.28500
H1066       H  0.01609481  0.41690949  0.88687522     0.28500
H1067       H  0.03155554  0.34302445  0.93950819     0.19100
H1068       H  0.46942209  0.40369391  0.56258795     0.19100
C1069       C  0.99963227  0.15636837  0.50153983    -0.06700
C1070       C  0.49047994  0.14118376  0.95683472    -0.17800
C1071       C  0.49092742  0.10906579  0.95352932     0.10500
C1072       C  0.99986362  0.09135388  0.49669365    -0.06600
C1073       C  0.00875501  0.10690661  0.54167230    -0.17900
C1074       C  0.00877278  0.13907546  0.54447599     0.10500
S1075       S  0.47943342  0.09258568  0.89321496    -0.32800
S1076       S  0.02012530  0.15672350  0.60409487    -0.32900
H1077       H  0.99904193  0.18124288  0.60114313     0.28500
H1078       H  0.50859443  0.07942453  0.88464666     0.28500
H1079       H  0.48358093  0.15452204  0.92375262     0.19100
H1080       H  0.01569661  0.09397033  0.57513417     0.19100
O1081       O  0.54307251  0.49712178  0.03946761    -0.72400
O1082       O  0.95575719  0.99983463  0.03854424    -0.72600
O1083       O  0.49819857  0.95487964  0.03894061    -0.72500
O1084       O  0.00058539  0.54234306  0.03855756    -0.72500
O1085       O  0.49875587  0.54186838  0.45583459    -0.72400
O1086       O  0.00027415  0.95471268  0.45607533    -0.72400
O1087       O  0.95573281  0.49796472  0.45557006    -0.72400
O1088       O  0.54316080  0.99911372  0.45645882    -0.72600
V1089       V  0.49939578  0.99855613  0.03731800     1.35200
V1090       V  0.99946663  0.99834680  0.45759991     1.35200
C1091       C  0.55794233  0.49804680  0.49811471     0.76900
C1092       C  0.94086618  0.99945411  0.49695163     0.76900
C1093       C  0.99949006  0.93987890  0.99745620     0.76800
C1094       C  0.49967909  0.55712709  0.99692471     0.76800
O1095       O  0.54423922  0.49942179  0.29148459    -0.72400
O1096       O  0.95678459  0.00012671  0.28901395    -0.72600
O1097       O  0.49999178  0.95599933  0.29089415    -0.72500
O1098       O  0.00103875  0.54325298  0.29003966    -0.72500
O1099       O  0.50050278  0.54289533  0.20697829    -0.72400
O1100       O  0.00148158  0.95535427  0.20793468    -0.72400
O1101       O  0.95745935  0.49880171  0.20620367    -0.72400
O1102       O  0.54471688  0.99925856  0.20837358    -0.72600
V1103       V  0.50053673  0.99965147  0.28875334     1.35200
V1104       V  0.00106695  0.99910005  0.20897595     1.35200
C1105       C  0.55928097  0.99938437  0.25024286     0.76900
C1106       C  0.94213531  0.99969096  0.24708579     0.76900
C1107       C  0.00029684  0.94077964  0.24962854     0.76800
C1108       C  0.00061154  0.55791709  0.24847856     0.76800
O1109       O  0.52516198  0.74956098  0.07434733    -0.72400
O1110       O  0.52526884  0.74747148  0.42945239    -0.72600
O1111       O  0.52524066  0.79215133  0.00025235    -0.72500
O1112       O  0.52500423  0.70474493  0.50392887    -0.72500
O1113       O  0.97504065  0.70511874  0.99883066    -0.72400
O1114       O  0.97529271  0.79238835  0.50427520    -0.72400
O1115       O  0.97530628  0.75014555  0.42898937    -0.72400
O1116       O  0.97518041  0.74746287  0.07396357    -0.72600
V1117       V  0.52421404  0.74846910  0.00194165     1.35200
V1118       V  0.97615981  0.74875492  0.50149489     1.35200
C1119       C  0.00018345  0.74852920  0.09872715     0.76900
C1120       C  0.00033438  0.74904492  0.40461192     0.76900
C1121       C  0.00029866  0.80710549  0.00281516     0.76800
C1122       C  0.99993285  0.69013940  0.00161344     0.76800
O1123       O  0.52542338  0.75022877  0.32427630    -0.72400
O1124       O  0.52530705  0.74829684  0.17923293    -0.72600
O1125       O  0.52520652  0.79300935  0.24987181    -0.72500
O1126       O  0.52569500  0.70568969  0.25333547    -0.72500
O1127       O  0.97573368  0.70549863  0.25106248    -0.72400
O1128       O  0.97522470  0.79295874  0.25185601    -0.72400
O1129       O  0.97528741  0.74922801  0.17904069    -0.72400
O1130       O  0.97541777  0.74909240  0.32394207    -0.72600
V1131       V  0.52443632  0.74932840  0.25171012     1.35200
V1132       V  0.97638452  0.74921216  0.25149634     1.35200
C1133       C  0.00041316  0.74951929  0.34870803     0.76900
C1134       C  0.00025768  0.74863896  0.15455798     0.76900
C1135       C  0.00015602  0.80784160  0.24993166     0.76800
C1136       C  0.00082635  0.69070824  0.25280348     0.76800
O1137       O  0.74888421  0.52750896  0.42791288    -0.72400
O1138       O  0.75047118  0.52736231  0.07283509    -0.72600
O1139       O  0.79333022  0.52721654  0.49913835    -0.72500
O1140       O  0.70582147  0.52741423  0.00150302    -0.72500
O1141       O  0.70592503  0.97748756  0.49885051    -0.72400
O1142       O  0.79323106  0.97720773  0.00159609    -0.72400
O1143       O  0.74913115  0.97733361  0.07253107    -0.72400
O1144       O  0.75021214  0.97747662  0.42753439    -0.72600
V1145       V  0.74959594  0.52641737  0.50037317     1.35200
V1146       V  0.74959829  0.97835288  0.00008414     1.35200
C1147       C  0.74970452  0.00252327  0.40312433     0.76900
C1148       C  0.75004287  0.00234401  0.09725957     0.76900
C1149       C  0.80812681  0.00212722  0.50079827     0.76800
C1150       C  0.69090616  0.00245941  0.49967693     0.76800
O1151       O  0.74981064  0.97753999  0.32254480    -0.72400
O1152       O  0.75094822  0.97737145  0.17761546    -0.72600
O1153       O  0.79414753  0.97687369  0.25171938    -0.72500
O1154       O  0.70682907  0.97807788  0.24891315    -0.72500
O1155       O  0.70722061  0.52801178  0.25017656    -0.72400
O1156       O  0.79462600  0.52691859  0.24981662    -0.72400
O1157       O  0.75061335  0.52742283  0.17773195    -0.72400
O1158       O  0.75102912  0.52756921  0.32273935    -0.72600
V1159       V  0.75046800  0.97844493  0.25012676     1.35200
V1160       V  0.75090220  0.52651784  0.25015578     1.35200
C1161       C  0.75016590  0.00256820  0.34723686     0.76900
C1162       C  0.75059225  0.00236747  0.15309724     0.76900
C1163       C  0.80919062  0.00170397  0.25107615     0.76800
C1164       C  0.69208171  0.00321205  0.24996373     0.76800
C1165       C  0.59308720  0.99971666  0.25086480    -0.06700
C1166       C  0.60812942  0.52457705  0.27415802    -0.17800
C1167       C  0.64026999  0.52664007  0.27422787     0.10500
C1168       C  0.65798319  0.00313485  0.25064620    -0.06600
C1169       C  0.64267036  0.97828957  0.22731674    -0.17900
C1170       C  0.61057685  0.97634126  0.22721840     0.10500
S1171       S  0.65692627  0.55958356  0.30573142    -0.32800
S1172       S  0.59329806  0.94310249  0.19744665    -0.32900
H1173       H  0.56922462  0.94053780  0.23286891     0.28500
H1174       H  0.68029194  0.54262739  0.33010669     0.28500
H1175       H  0.59469068  0.54265930  0.29213732     0.19100
H1176       H  0.65579883  0.96014114  0.20895844     0.19100
C1177       C  0.90794292  0.00006532  0.24643554    -0.06700
C1178       C  0.89236594  0.98950405  0.28998069    -0.17800
C1179       C  0.86023587  0.98986205  0.29259162     0.10500
C1180       C  0.84300146  0.00130318  0.25104607    -0.06600
C1181       C  0.85824680  0.51187304  0.20754682    -0.17900
C1182       C  0.89045791  0.51101159  0.20426315     0.10500
S1183       S  0.84258281  0.97578572  0.35015809    -0.32800
S1184       S  0.90837181  0.52434927  0.14618614    -0.32900
H1185       H  0.88131930  0.53264316  0.11989759     0.28500
H1186       H  0.81816529  0.99706543  0.35016614     0.28500
H1187       H  0.90530082  0.98082810  0.32239608     0.19100
H1188       H  0.84469404  0.52032271  0.17570631     0.19100
C1189       C  0.99954921  0.90677119  0.24993696    -0.06700
C1190       C  0.51777519  0.89064831  0.21466641    -0.17800
C1191       C  0.51826928  0.85846683  0.21343984     0.10500
C1192       C  0.99994349  0.84177655  0.24812453    -0.06600
C1193       C  0.98109570  0.85785822  0.28255155    -0.17900
C1194       C  0.98079507  0.89015646  0.28409000     0.10500
S1195       S  0.54212407  0.84030767  0.16569515    -0.32800
S1196       S  0.95520551  0.90975148  0.32789040    -0.32900
H1197       H  0.94439681  0.88337823  0.35304481     0.28500
H1198       H  0.52276183  0.81497591  0.15713590     0.28500
H1199       H  0.53182662  0.90322331  0.18781232     0.19100
H1200       H  0.96684658  0.84498725  0.30867913     0.19100
C1201       C  0.00031205  0.59181449  0.24894058    -0.06700
C1202       C  0.52209358  0.60728208  0.27916184    -0.17800
C1203       C  0.52244258  0.63944110  0.28212134     0.10500
C1204       C  0.00093839  0.65673074  0.25328685    -0.06600
C1205       C  0.97905499  0.64118477  0.22334887    -0.17900
C1206       C  0.97839040  0.60904886  0.22117557     0.10500
S1207       S  0.54984312  0.65680393  0.32526322    -0.32800
S1208       S  0.94823606  0.59145932  0.18406168    -0.32900
H1209       H  0.94271108  0.56782801  0.21941089     0.28500
H1210       H  0.52939386  0.67948483  0.34339651     0.28500
H1211       H  0.53873660  0.59417022  0.30113692     0.19100
H1212       H  0.96232155  0.65417643  0.20138178     0.19100
C1213       C  0.59179058  0.49843861  0.49836311    -0.06700
C1214       C  0.60672729  0.52338528  0.47565789    -0.17800
C1215       C  0.63885406  0.52551665  0.47563905     0.10500
C1216       C  0.65675599  0.00205208  0.49879916    -0.06600
C1217       C  0.64159190  0.97704528  0.02148941    -0.17900
C1218       C  0.60944673  0.97497776  0.02147346     0.10500
S1219       S  0.65528389  0.55839616  0.44432431    -0.32800
S1220       S  0.59240547  0.94149113  0.05032155    -0.32900
H1221       H  0.56735555  0.93951238  0.01636711     0.28500
H1222       H  0.67885577  0.54149431  0.42050269     0.28500
H1223       H  0.59320126  0.54146001  0.45790921     0.19100
H1224       H  0.65488565  0.95888429  0.03942393     0.19100
C1225       C  0.90690823  0.00070861  0.49720728    -0.06700
C1226       C  0.89112970  0.98329213  0.03370666    -0.17800
C1227       C  0.85900524  0.98388200  0.03647977     0.10500
C1228       C  0.84202067  0.00189090  0.50142854    -0.06600
C1229       C  0.85773184  0.51952980  0.46521621    -0.17900
C1230       C  0.88989308  0.51921210  0.46279916     0.10500
S1231       S  0.84115877  0.96221477  0.08691218    -0.32800
S1232       S  0.90777998  0.54375571  0.41629558    -0.32900
H1233       H  0.93130972  0.55364959  0.44950670     0.28500
H1234       H  0.81797587  0.98406648  0.09681658     0.28500
H1235       H  0.90395800  0.96928955  0.06062395     0.19100
H1236       H  0.84483301  0.53353301  0.43838710     0.19100
C1237       C  0.00040097  0.84097971  0.00326820    -0.06700
C1238       C  0.01795076  0.85625079  0.46644144    -0.17800
C1239       C  0.01756955  0.88834933  0.46284004     0.10500
C1240       C  0.99988232  0.90586194  0.99775359    -0.06600
C1241       C  0.48285622  0.89052866  0.03533692    -0.17900
C1242       C  0.48284712  0.85839204  0.03843290     0.10500
S1243       S  0.04141068  0.90559697  0.41475305    -0.32800
S1244       S  0.46072996  0.84123614  0.08906478    -0.32900
H1245       H  0.48024274  0.81582201  0.09656001     0.28500
H1246       H  0.01609998  0.91691023  0.38687271     0.28500
H1247       H  0.03156011  0.84302407  0.43950415     0.19100
H1248       H  0.46942348  0.90369341  0.06259270     0.19100
C1249       C  0.99963277  0.65636835  0.00153677    -0.06700
C1250       C  0.49047941  0.64118353  0.45683015    -0.17800
C1251       C  0.49092672  0.60906576  0.45352417     0.10500
C1252       C  0.99986361  0.59135377  0.99669331    -0.06600
C1253       C  0.00875471  0.60690728  0.04167093    -0.17900
C1254       C  0.00877284  0.63907595  0.04447383     0.10500
S1255       S  0.47943229  0.59258558  0.39321022    -0.32800
S1256       S  0.02012504  0.65672482  0.10409209    -0.32900
H1257       H  0.99904125  0.68124378  0.10113946     0.28500
H1258       H  0.50859303  0.57942385  0.38464198     0.28500
H1259       H  0.48357969  0.65452288  0.42374574     0.19100
H1260       H  0.01569659  0.59397038  0.07513603     0.19100
O1261       O  0.54307246  0.49712148  0.53946531    -0.72400
O1262       O  0.95575713  0.99983444  0.53854303    -0.72600
O1263       O  0.49819867  0.95487931  0.53893812    -0.72500
O1264       O  0.00058546  0.54234311  0.53855641    -0.72500
O1265       O  0.49875600  0.54186855  0.95583682    -0.72400
O1266       O  0.00027366  0.95471267  0.95607610    -0.72400
O1267       O  0.95573280  0.49796492  0.95557115    -0.72400
O1268       O  0.54316057  0.99911359  0.95646055    -0.72600
V1269       V  0.49939568  0.99855577  0.53731573     1.35200
V1270       V  0.99946641  0.99834677  0.95760063     1.35200
C1271       C  0.55794246  0.49804708  0.99811710     0.76900
C1272       C  0.94086609  0.99945442  0.99695295     0.76900
C1273       C  0.99949027  0.93987891  0.49745543     0.76800
C1274       C  0.49967920  0.55712694  0.49692247     0.76800
O1275       O  0.54424004  0.49942146  0.79148520    -0.72400
O1276       O  0.95678448  0.00012681  0.78901312    -0.72600
O1277       O  0.49999157  0.95599904  0.79089300    -0.72500
O1278       O  0.00103947  0.54325293  0.79003855    -0.72500
O1279       O  0.50050383  0.54289518  0.70697876    -0.72400
O1280       O  0.00148117  0.95535449  0.70793318    -0.72400
O1281       O  0.95746027  0.49880198  0.70620182    -0.72400
O1282       O  0.54471671  0.99925814  0.70837289    -0.72600
V1283       V  0.50053650  0.99965114  0.78875260     1.35200
V1284       V  0.00106657  0.99910027  0.70897470     1.35200
C1285       C  0.55928073  0.99938396  0.75024224     0.76900
C1286       C  0.94213508  0.99969115  0.74708506     0.76900
C1287       C  0.00029653  0.94077979  0.74962698     0.76800
C1288       C  0.00061240  0.55791718  0.74847757     0.76800
O1289       O  0.52516204  0.74956075  0.57434693    -0.72400
O1290       O  0.52526948  0.74747157  0.92945271    -0.72600
O1291       O  0.52524023  0.79215115  0.50025198    -0.72500
O1292       O  0.52500443  0.70474509  0.00392949    -0.72500
O1293       O  0.97504052  0.70511868  0.49883093    -0.72400
O1294       O  0.97529299  0.79238837  0.00427537    -0.72400
O1295       O  0.97530672  0.75014573  0.92898926    -0.72400
O1296       O  0.97518044  0.74746297  0.57396369    -0.72600
V1297       V  0.52421373  0.74846893  0.50194126     1.35200
V1298       V  0.97616002  0.74875496  0.00149479     1.35200
C1299       C  0.00018356  0.74852927  0.59872706     0.76900
C1300       C  0.00033488  0.74904498  0.90461194     0.76900
C1301       C  0.00029834  0.80710551  0.50281487     0.76800
C1302       C  0.99993275  0.69013940  0.50161319     0.76800
O1303       O  0.52542417  0.75022891  0.82427620    -0.72400
O1304       O  0.52530754  0.74829673  0.67923267    -0.72600
O1305       O  0.52520687  0.79300938  0.74987134    -0.72500
O1306       O  0.52569598  0.70568969  0.75333546    -0.72500
O1307       O  0.97573430  0.70549865  0.75106232    -0.72400
O1308       O  0.97522493  0.79295877  0.75185604    -0.72400
O1309       O  0.97528772  0.74922809  0.67904071    -0.72400
O1310       O  0.97541831  0.74909237  0.82394205    -0.72600
V1311       V  0.52443698  0.74932842  0.75170992     1.35200
V1312       V  0.97638495  0.74921219  0.75149633     1.35200
C1313       C  0.00041371  0.74951942  0.84870799     0.76900
C1314       C  0.00025794  0.74863906  0.65455788     0.76900
C1315       C  0.00015619  0.80784176  0.74993123     0.76800
C1316       C  0.00082702  0.69070836  0.75280325     0.76800
O1317       O  0.74888463  0.52750859  0.92791278    -0.72400
O1318       O  0.75047124  0.52736215  0.57283521    -0.72600
O1319       O  0.79333037  0.52721643  0.99913862    -0.72500
O1320       O  0.70582131  0.52741431  0.50150334    -0.72500
O1321       O  0.70592504  0.97748662  0.99885118    -0.72400
O1322       O  0.79323104  0.97720812  0.50159619    -0.72400
O1323       O  0.74913089  0.97733401  0.57253082    -0.72400
O1324       O  0.75021192  0.97747580  0.92753452    -0.72600
V1325       V  0.74959609  0.52641727  0.00037308     1.35200
V1326       V  0.74959828  0.97835352  0.50008393     1.35200
C1327       C  0.74970439  0.00252242  0.90312433     0.76900
C1328       C  0.75004299  0.00234430  0.59725955     0.76900
C1329       C  0.80812668  0.00212694  0.00079857     0.76800
C1330       C  0.69090606  0.00245841  0.99967691     0.76800
O1331       O  0.74981076  0.97753928  0.82254458    -0.72400
O1332       O  0.75094787  0.97737138  0.67761516    -0.72600
O1333       O  0.79414743  0.97687335  0.75171873    -0.72500
O1334       O  0.70682892  0.97807745  0.74891332    -0.72500
O1335       O  0.70722148  0.52801133  0.75017686    -0.72400
O1336       O  0.79462689  0.52691807  0.74981645    -0.72400
O1337       O  0.75061408  0.52742241  0.67773201    -0.72400
O1338       O  0.75103010  0.52756866  0.82273940    -0.72600
V1339       V  0.75046788  0.97844454  0.75012650     1.35200
V1340       V  0.75090308  0.52651736  0.75015585     1.35200
C1341       C  0.75016570  0.00256742  0.84723686     0.76900
C1342       C  0.75059225  0.00236751  0.65309722     0.76900
C1343       C  0.80919045  0.00170368  0.75107633     0.76800
C1344       C  0.69208151  0.00321165  0.74996353     0.76800
C1345       C  0.59308693  0.99971625  0.75086426    -0.06700
C1346       C  0.60813023  0.52457709  0.77415813    -0.17800
C1347       C  0.64027106  0.52663986  0.77422762     0.10500
C1348       C  0.65798297  0.00313437  0.75064584    -0.06600
C1349       C  0.64267006  0.97828797  0.72732027    -0.17900
C1350       C  0.61057669  0.97633952  0.72722153     0.10500
S1351       S  0.65692713  0.55958396  0.80572993    -0.32800
S1352       S  0.59329791  0.94309953  0.69745353    -0.32900
H1353       H  0.56922371  0.94053674  0.73287473     0.28500
H1354       H  0.68029280  0.54262815  0.83010596     0.28500
H1355       H  0.59469274  0.54265790  0.79213502     0.19100
H1356       H  0.65579926  0.96013756  0.70896390     0.19100
C1357       C  0.90794273  0.00006547  0.74643531    -0.06700
C1358       C  0.89236585  0.98950450  0.78998064    -0.17800
C1359       C  0.86023587  0.98986236  0.79259191     0.10500
C1360       C  0.84300125  0.00130307  0.75104598    -0.06600
C1361       C  0.85824742  0.51187223  0.70754524    -0.17900
C1362       C  0.89045863  0.51101097  0.70426148     0.10500
S1363       S  0.84258298  0.97578651  0.85015883    -0.32800
S1364       S  0.90837221  0.52434873  0.64618422    -0.32900
H1365       H  0.88131952  0.53264116  0.61989493     0.28500
H1366       H  0.81816521  0.99706591  0.85016633     0.28500
H1367       H  0.90530120  0.98082862  0.82239706     0.19100
H1368       H  0.84469497  0.52032137  0.67570592     0.19100
C1369       C  0.99954885  0.90677134  0.74993528    -0.06700
C1370       C  0.51777409  0.89064805  0.71466443    -0.17800
C1371       C  0.51826840  0.85846658  0.71343798     0.10500
C1372       C  0.99994333  0.84177668  0.74812371    -0.06600
C1373       C  0.98109584  0.85785851  0.78255062    -0.17900
C1374       C  0.98079481  0.89015661  0.78408881     0.10500
S1375       S  0.54212242  0.84030747  0.66569216    -0.32800
S1376       S  0.95520526  0.90975178  0.82788897    -0.32900
H1377       H  0.94439363  0.88337829  0.85303927     0.28500
H1378       H  0.52276050  0.81497524  0.65713470     0.28500
H1379       H  0.53182513  0.90322315  0.68780947     0.19100
H1380       H  0.96684632  0.84498688  0.80868019     0.19100
C1381       C  0.00031283  0.59181458  0.74893988    -0.06700
C1382       C  0.52209455  0.60728189  0.77916250    -0.17800
C1383       C  0.52244376  0.63944086  0.78212168     0.10500
C1384       C  0.00093915  0.65673084  0.75328638    -0.06600
C1385       C  0.97905604  0.64118492  0.72334761    -0.17900
C1386       C  0.97839153  0.60904898  0.72117417     0.10500
S1387       S  0.54984445  0.65680383  0.82526312    -0.32800
S1388       S  0.94823769  0.59145946  0.68405903    -0.32900
H1389       H  0.94271231  0.56782800  0.71940779     0.28500
H1390       H  0.52939536  0.67948489  0.84339631     0.28500
H1391       H  0.53873789  0.59416972  0.80113832     0.19100
H1392       H  0.96232302  0.65417647  0.70138027     0.19100
C1393       C  0.59179067  0.49843904  0.99836532    -0.06700
C1394       C  0.60672749  0.52338521  0.97565951    -0.17800
C1395       C  0.63885407  0.52551661  0.97563963     0.10500
C1396       C  0.65675597  0.00205089  0.99879919    -0.06600
C1397       C  0.64159203  0.97704502  0.52148548    -0.17900
C1398       C  0.60944682  0.97497732  0.52146918     0.10500
S1399       S  0.65528391  0.55839561  0.94432359    -0.32800
S1400       S  0.59240584  0.94148931  0.55031344    -0.32900
H1401       H  0.56735546  0.93951224  0.51635969     0.28500
H1402       H  0.67885552  0.54149336  0.92050205     0.28500
H1403       H  0.59320049  0.54146107  0.95790937     0.19100
H1404       H  0.65488559  0.95888347  0.53941701     0.19100
C1405       C  0.90690816  0.00070901  0.99720889    -0.06700
C1406       C  0.89112988  0.98329236  0.53370617    -0.17800
C1407       C  0.85900537  0.98388256  0.53647953     0.10500
C1408       C  0.84202056  0.00189079  0.00142940    -0.06600
C1409       C  0.85773203  0.51952989  0.96521760    -0.17900
C1410       C  0.88989324  0.51921231  0.96280070     0.10500
S1411       S  0.84115899  0.96221629  0.58691319    -0.32800
S1412       S  0.90778018  0.54375637  0.91629782    -0.32900
H1413       H  0.93130969  0.55365010  0.94950951     0.28500
H1414       H  0.81797619  0.98406825  0.59681664     0.28500
H1415       H  0.90395788  0.96929052  0.56062336     0.19100
H1416       H  0.84483314  0.53353332  0.93838832     0.19100
C1417       C  0.00040071  0.84097969  0.50326754    -0.06700
C1418       C  0.01795073  0.85625079  0.96644142    -0.17800
C1419       C  0.01756925  0.88834946  0.96284037     0.10500
C1420       C  0.99988232  0.90586194  0.49775280    -0.06600
C1421       C  0.48285577  0.89052875  0.53533475    -0.17900
C1422       C  0.48284650  0.85839217  0.53843123     0.10500
S1423       S  0.04140990  0.90559718  0.91475275    -0.32800
S1424       S  0.46072898  0.84123664  0.58906302    -0.32900
H1425       H  0.48024153  0.81582243  0.59655907     0.28500
H1426       H  0.01609890  0.91691028  0.88687300     0.28500
H1427       H  0.03155920  0.84302474  0.93950494     0.19100
H1428       H  0.46942300  0.90369376  0.56259031     0.19100
C1429       C  0.99963283  0.65636833  0.50153628    -0.06700
C1430       C  0.49047963  0.64118338  0.95683158    -0.17800
C1431       C  0.49092665  0.60906580  0.95352574     0.10500
C1432       C  0.99986383  0.59135379  0.49669203    -0.06600
C1433       C  0.00875484  0.60690715  0.54167001    -0.17900
C1434       C  0.00877283  0.63907589  0.54447305     0.10500
S1435       S  0.47943231  0.59258527  0.89321205    -0.32800
S1436       S  0.02012497  0.65672457  0.60409153    -0.32900
H1437       H  0.99904117  0.68124354  0.60113902     0.28500
H1438       H  0.50859319  0.57942392  0.88464354     0.28500
H1439       H  0.48357965  0.65452354  0.92374443     0.19100
H1440       H  0.01569644  0.59397057  0.57513406     0.19100
loop_ 
_geom_bond_atom_site_label_1 
_geom_bond_atom_site_label_2 
_geom_bond_distance 
_geom_bond_site_symmetry_2 
_ccdc_geom_bond_type 
O1          V369   1.900   1_455  S
O1          C191   1.263   1_554  A
O2          V729   1.898       .  S
O2          C192   1.264   1_554  A
O3            V9   1.899       .  S
O3          C733   1.265   1_554  A
O4         V1089   1.904   1_545  S
O4          C734   1.267   1_554  A
O5         V1090   1.892   1_545  S
O5          C194   1.261       .  A
O6           V10   1.896       .  S
O6          C193   1.263       .  A
O7          V370   1.901       .  S
O7          C372   1.265       .  A
O8          V730   1.900   1_455  S
O8          C371   1.264       .  A
V9          O361   1.900   1_655  S
V9          O722   1.898       .  S
V9         O1084   1.904   1_655  S
V9          V910   2.086   1_554  T
V10        O1085   1.892       .  S
V10         O367   1.901       .  S
V10         O728   1.900       .  S
V10         V909   2.086       .  T
C11         O181   1.263       .  A
C11         O368   1.264       .  A
C11         C133   1.471       .  S
C12         O182   1.264       .  A
C12         O367   1.265       .  A
C12         C145   1.477       .  S
C13         O723   1.265   1_556  A
C13         O186   1.263       .  A
C13         C160   1.478       .  S
C14         O724   1.267   1_656  A
C14         O185   1.261       .  A
C14         C892   1.487       .  S
O15         V383   1.901       .  S
O15         C385   1.264       .  A
O16         V743   1.902       .  S
O16          C26   1.266       .  A
O17          V23   1.898   1_655  S
O17         C747   1.264   1_655  A
O18        V1103   1.895   1_545  S
O18          C28   1.263       .  A
O19        V1104   1.903   1_545  S
O19         C748   1.265       .  A
O20          V24   1.901       .  S
O20          C27   1.265       .  A
O21         V384   1.896       .  S
O21         C386   1.263       .  A
O22         V744   1.897       .  S
O22          C25   1.263       .  A
V23         O375   1.901       .  S
V23         O736   1.902   1_455  S
V23        O1098   1.895       .  S
V23         V744   2.088       .  T
V24        O1099   1.903       .  S
V24         O381   1.896       .  S
V24         O742   1.897       .  S
V24         V743   2.088       .  T
C25         O375   1.264       .  A
C25          C85   1.469       .  S
C26         O381   1.263       .  A
C26          C97   1.486       .  S
C27         O737   1.264       .  A
C27         C109   1.478       .  S
C28         O739   1.265       .  A
C28         C121   1.473       .  S
O29          V37   1.895       .  S
O29         C759   1.263       .  A
O30         V217   1.898       .  S
O30         C760   1.263       .  A
O31          V37   1.899       .  S
O31         C761   1.264       .  A
O32         V217   1.901       .  S
O32         C942   1.264   1_455  A
O33         V218   1.898   1_556  S
O33          C42   1.263   1_556  A
O34          V38   1.897       .  S
O34         C221   1.263       .  A
O35          V38   1.899       .  S
O35          C40   1.264       .  A
O36         V218   1.898       .  S
O36          C39   1.264       .  A
V37         O210   1.898   1_554  S
V37         O212   1.901       .  S
V37         V938   2.089   1_455  T
V38         O213   1.898       .  S
V38         O216   1.898       .  S
V38         V937   2.089       .  T
C39         O749   1.263       .  A
C39          C54   1.461       .  S
C40         O750   1.263       .  A
C40          C53   1.463       .  S
C41         O751   1.264       .  A
C41         O214   1.263       .  A
C41         C157   1.472       .  S
C42         O932   1.264       .  A
C42         C169   1.467       .  S
O43          V51   1.899       .  S
O43         C773   1.264       .  A
O44          V51   1.897       .  S
O44         C774   1.264       .  A
O45          V51   1.899       .  S
O45         C775   1.264       .  A
O46          V51   1.897       .  S
O46         C776   1.263       .  A
O47          V52   1.899       .  S
O47          C56   1.265       .  A
O48          V52   1.901       .  S
O48          C55   1.265       .  A
O49          V52   1.896       .  S
O49          C54   1.263       .  A
O50          V52   1.896       .  S
O50          C53   1.263       .  A
V51         V772   2.089   1_455  T
V52         V771   2.089       .  T
C53         O763   1.264       .  A
C54         O764   1.264       .  A
C55         O765   1.264       .  A
C55         C112   1.475       .  S
C56         O766   1.263       .  A
C56         C124   1.476       .  S
O57          V65   1.897       .  S
O57         C427   1.263       .  A
O58         V245   1.897       .  S
O58         C428   1.263       .  A
O59          V65   1.902       .  S
O59         C429   1.265       .  A
O60         V245   1.903       .  S
O60         C610   1.265   1_554  A
O61         V246   1.899       .  S
O61          C70   1.265       .  A
O62          V66   1.897       .  S
O62         C249   1.263       .  A
O63          V66   1.897       .  S
O63          C68   1.263       .  A
O64         V246   1.899       .  S
O64          C67   1.264       .  A
V65         O238   1.897       .  S
V65         O240   1.903       .  S
V65         V606   2.088   1_545  T
V66         O241   1.899   1_554  S
V66         O244   1.899   1_554  S
V66         V605   2.088       .  T
C67         O417   1.263       .  A
C67          C81   1.463       .  S
C68         O418   1.263       .  A
C68          C82   1.461       .  S
C69         O419   1.265       .  A
C69         O242   1.263       .  A
C69         C148   1.473       .  S
C70         O600   1.265       .  A
C70         C136   1.485       .  S
O71          V79   1.896       .  S
O71          C81   1.263       .  A
O72          V79   1.898       .  S
O72          C82   1.264       .  A
O73          V79   1.900       .  S
O73          C83   1.263       .  A
O74          V79   1.897       .  S
O74          C84   1.265       .  A
O75          V80   1.899       .  S
O75         C444   1.264       .  A
O76          V80   1.901       .  S
O76         C443   1.264       .  A
O77          V80   1.896       .  S
O77         C442   1.263       .  A
O78          V80   1.900       .  S
O78         C441   1.264       .  A
V79         V440   2.089       .  T
V80         V439   2.089   1_545  T
C81         O438   1.264       .  A
C82         O437   1.263       .  A
C83         O436   1.264       .  A
C83         C100   1.470       .  S
C84         O435   1.264       .  A
C84          C88   1.482       .  S
C85          C90   1.409       .  A
C85         C446   1.400       .  A
C86          C87   1.400       .  A
C86         C445   1.400   1_545  A
C86          H95   1.085       .  S
C87         C448   1.418       .  A
C87          S91   1.801       .  S
C88          C89   1.406       .  A
C88         C447   1.418       .  A
C89          C90   1.398       .  A
C89          H96   1.084       .  S
C90          S92   1.802       .  S
S91          H94   1.405       .  S
S92          H93   1.406       .  S
C97          C98   1.407       .  A
C97         C462   1.420       .  A
C98          C99   1.398       .  A
C98         H107   1.084       .  S
C99         C100   1.409       .  A
C99         S103   1.803       .  S
C100        C461   1.399       .  A
C101        C102   1.403       .  A
C101        C460   1.399       .  A
C101        H108   1.083       .  S
C102        C457   1.420       .  A
C102        S104   1.809       .  S
S103        H106   1.405       .  S
S104        H105   1.407       .  S
C109        C114   1.414       .  A
C109        C830   1.403       .  A
C110        C111   1.398       .  A
C110        C829   1.403   1_455  A
C110        H119   1.083       .  S
C111        C832   1.414   1_455  A
C111        S115   1.804       .  S
C112        C113   1.403       .  A
C112        C831   1.414       .  A
C113        C114   1.404       .  A
C113        H120   1.083       .  S
C114        S116   1.809       .  S
S115        H118   1.404       .  S
S116        H117   1.407       .  S
C121        C126   1.411       .  A
C121        C842   1.402       .  A
C122        C123   1.399       .  A
C122        C841   1.402       .  A
C122        H131   1.084       .  S
C123        C844   1.415       .  A
C123        S127   1.803       .  S
C124        C125   1.403       .  A
C124        C843   1.415       .  A
C125        C126   1.397       .  A
C125        H132   1.084       .  S
C126        S128   1.798       .  S
S127        H130   1.407       .  S
S128        H129   1.406       .  S
C133        C134   1.401   1_565  A
C133        C678   1.411       .  A
C134        C135   1.400       .  A
C134        H143   1.084       .  S
C135        C496   1.417       .  A
C135        S139   1.801       .  S
C136        C495   1.417       .  A
C136        C317   1.407       .  A
C137        C138   1.400       .  A
C137        C316   1.407   1_554  A
C137        H144   1.084       .  S
C138        C673   1.411   1_554  A
C138        S140   1.804       .  S
S139        H142   1.405       .  S
S140        H141   1.405       .  S
C145        C326   1.403       .  A
C145        C510   1.414       .  A
C146        C147   1.399       .  A
C146        C325   1.403   1_554  A
C146        H155   1.084       .  S
C147        C328   1.412       .  A
C147        S151   1.803       .  S
C148        C327   1.412       .  A
C148        C509   1.402       .  A
C149        C150   1.400       .  A
C149        C508   1.402       .  A
C149        H156   1.084       .  S
C150        C505   1.414       .  A
C150        S152   1.801       .  S
S151        H154   1.406       .  S
S152        H153   1.406       .  S
C157        C338   1.402   1_554  A
C157        C882   1.413       .  A
C158        C159   1.398       .  A
C158        C337   1.402       .  A
C158        H167   1.084       .  S
C159        C340   1.415       .  A
C159        S163   1.800       .  S
C160        C339   1.415       .  A
C160        C881   1.404   1_556  A
C161        C162   1.399       .  A
C161        C880   1.404   1_554  A
C161        H168   1.084       .  S
C162        C877   1.413   1_655  A
C162        S164   1.805       .  S
S163        H166   1.406       .  S
S164        H165   1.404       .  S
C169        C174   1.409       .  A
C169       C1070   1.398   1_554  A
C170        C171   1.398       .  A
C170       C1069   1.398       .  A
C170        H179   1.085       .  S
C171       C1072   1.421       .  A
C171        S175   1.800       .  S
C172        C734   1.487       .  S
C172        C173   1.408   1_556  A
C172       C1071   1.421       .  A
C173        C174   1.399       .  A
C173        H180   1.084       .  S
C174        S176   1.803       .  S
S175        H178   1.407   1_655  S
S176        H177   1.405       .  S
O181        V549   1.900   1_455  S
O182        V909   1.898       .  S
O183        V189   1.899       .  S
O183        C913   1.265       .  A
O184       V1269   1.904   1_545  S
O184        C914   1.267       .  A
O185       V1270   1.892   1_545  S
O186        V190   1.896       .  S
O187        V550   1.901       .  S
O187        C552   1.265       .  A
O188        V910   1.900   1_455  S
O188        C551   1.264       .  A
V189        O541   1.900   1_655  S
V189        O902   1.898       .  S
V189       O1264   1.904   1_655  S
V189        V730   2.086       .  T
V190       O1265   1.892       .  S
V190        O547   1.901       .  S
V190        O908   1.900       .  S
V190        V729   2.086   1_556  T
C191        O548   1.264       .  A
C191        C313   1.471       .  S
C192        O547   1.265       .  A
C192        C325   1.477       .  S
C193        O903   1.265       .  A
C193        C340   1.478       .  S
C194        O904   1.267   1_655  A
C194       C1072   1.487       .  S
O195        V563   1.901       .  S
O195        C565   1.264       .  A
O196        V923   1.902       .  S
O196        C206   1.266       .  A
O197        V203   1.898   1_655  S
O197        C927   1.264   1_655  A
O198       V1283   1.895   1_545  S
O198        C208   1.263       .  A
O199       V1284   1.903   1_545  S
O199        C928   1.265       .  A
O200        V204   1.901       .  S
O200        C207   1.265       .  A
O201        V564   1.896       .  S
O201        C566   1.263       .  A
O202        V924   1.897       .  S
O202        C205   1.263       .  A
V203        O555   1.901       .  S
V203        O916   1.902   1_455  S
V203       O1278   1.895       .  S
V203        V924   2.088       .  T
V204       O1279   1.903       .  S
V204        O561   1.896       .  S
V204        O922   1.897       .  S
V204        V923   2.088       .  T
C205        O555   1.264       .  A
C205        C265   1.469       .  S
C206        O561   1.263       .  A
C206        C277   1.486       .  S
C207        O917   1.264       .  A
C207        C289   1.478       .  S
C208        O919   1.265       .  A
C208        C301   1.473       .  S
O209        V217   1.895       .  S
O209        C939   1.263       .  A
O210        C940   1.263       .  A
O211        V217   1.899       .  S
O211        C941   1.264       .  A
O212        C762   1.264   1_455  A
O213        C222   1.263       .  A
O214        V218   1.897       .  S
O215        V218   1.899   1_556  S
O215        C220   1.264       .  A
O216        C219   1.264       .  A
V217        V758   2.089   1_455  T
V218        V757   2.089       .  T
C219        O929   1.263       .  A
C219        C234   1.461       .  S
C220        O930   1.263       .  A
C220        C233   1.463       .  S
C221        O931   1.264       .  A
C221        C337   1.472       .  S
C222        O752   1.264       .  A
C222        C349   1.467       .  S
O223        V231   1.899       .  S
O223        C953   1.264       .  A
O224        V231   1.897       .  S
O224        C954   1.264       .  A
O225        V231   1.899       .  S
O225        C955   1.264       .  A
O226        V231   1.897       .  S
O226        C956   1.263       .  A
O227        V232   1.899       .  S
O227        C236   1.265       .  A
O228        V232   1.901       .  S
O228        C235   1.265       .  A
O229        V232   1.896       .  S
O229        C234   1.263       .  A
O230        V232   1.896       .  S
O230        C233   1.263       .  A
V231        V952   2.089   1_455  T
V232        V951   2.089       .  T
C233        O943   1.264       .  A
C234        O944   1.264       .  A
C235        O945   1.264       .  A
C235        C292   1.475       .  S
C236        O946   1.263       .  A
C236        C304   1.476       .  S
O237        V245   1.897   1_556  S
O237        C607   1.263       .  A
O238        C608   1.263       .  A
O239        V245   1.902   1_556  S
O239        C609   1.265   1_556  A
O240        C430   1.265       .  A
O241        C250   1.265       .  A
O242        V246   1.897       .  S
O243        V246   1.897       .  S
O243        C248   1.263       .  A
O244        C247   1.264       .  A
V245        V426   2.088   1_545  T
V246        V425   2.088       .  T
C247        O597   1.263       .  A
C247        C261   1.463       .  S
C248        O598   1.263       .  A
C248        C262   1.461       .  S
C249        O599   1.265   1_554  A
C249        C328   1.473       .  S
C250        O420   1.265   1_556  A
C250        C316   1.485       .  S
O251        V259   1.896       .  S
O251        C261   1.263       .  A
O252        V259   1.898       .  S
O252        C262   1.264       .  A
O253        V259   1.900       .  S
O253        C263   1.263       .  A
O254        V259   1.897       .  S
O254        C264   1.265       .  A
O255        V260   1.899       .  S
O255        C624   1.264       .  A
O256        V260   1.901       .  S
O256        C623   1.264       .  A
O257        V260   1.896       .  S
O257        C622   1.263       .  A
O258        V260   1.900       .  S
O258        C621   1.264       .  A
V259        V620   2.089       .  T
V260        V619   2.089   1_545  T
C261        O618   1.264       .  A
C262        O617   1.263       .  A
C263        O616   1.264       .  A
C263        C280   1.470       .  S
C264        O615   1.264       .  A
C264        C268   1.482       .  S
C265        C626   1.400       .  A
C265        C270   1.409       .  A
C266        C625   1.400   1_545  A
C266        C267   1.400       .  A
C266        H275   1.084       .  S
C267        C628   1.418       .  A
C267        S271   1.801       .  S
C268        C627   1.418       .  A
C268        C269   1.406       .  A
C269        C270   1.398       .  A
C269        H276   1.084       .  S
C270        S272   1.802       .  S
S271        H274   1.405       .  S
S272        H273   1.406       .  S
C277        C278   1.407       .  A
C277        C642   1.420       .  A
C278        C279   1.398       .  A
C278        H287   1.084       .  S
C279        C280   1.409       .  A
C279        S283   1.803       .  S
C280        C641   1.399       .  A
C281        C640   1.399       .  A
C281        C282   1.403       .  A
C281        H288   1.083       .  S
C282        C637   1.420       .  A
C282        S284   1.809       .  S
S283        H286   1.405       .  S
S284        H285   1.407       .  S
C289       C1010   1.403       .  A
C289        C294   1.414       .  A
C290       C1009   1.403   1_455  A
C290        C291   1.398       .  A
C290        H299   1.083       .  S
C291       C1012   1.414   1_455  A
C291        S295   1.804       .  S
C292       C1011   1.414       .  A
C292        C293   1.403       .  A
C293        C294   1.404       .  A
C293        H300   1.083       .  S
C294        S296   1.809       .  S
S295        H298   1.404       .  S
S296        H297   1.407       .  S
C301       C1022   1.402       .  A
C301        C306   1.411       .  A
C302       C1021   1.402       .  A
C302        C303   1.399       .  A
C302        H311   1.084       .  S
C303       C1024   1.415       .  A
C303        S307   1.803       .  S
C304       C1023   1.415       .  A
C304        C305   1.403       .  A
C305        C306   1.397       .  A
C305        H312   1.084       .  S
C306        S308   1.798       .  S
S307        H310   1.407       .  S
S308        H309   1.406       .  S
C313        C314   1.401   1_565  A
C313        C498   1.411   1_556  A
C314        C315   1.400       .  A
C314        H323   1.084       .  S
C315        C676   1.417       .  A
C315        S319   1.801       .  S
C316        C675   1.417       .  A
C317        C318   1.400       .  A
C317        H324   1.084       .  S
C318        C493   1.411       .  A
C318        S320   1.804       .  S
S319        H322   1.405       .  S
S320        H321   1.405       .  S
C325        C690   1.414       .  A
C326        C327   1.399       .  A
C326        H335   1.084       .  S
C327        S331   1.803       .  S
C328        C689   1.402   1_554  A
C329        C688   1.402   1_556  A
C329        C330   1.400       .  A
C329        H336   1.084       .  S
C330        C685   1.414       .  A
C330        S332   1.801       .  S
S331        H334   1.406       .  S
S332        H333   1.406       .  S
C337       C1062   1.413       .  A
C338        C339   1.398       .  A
C338        H347   1.084       .  S
C339        S343   1.800       .  S
C340       C1061   1.404       .  A
C341       C1060   1.404       .  A
C341        C342   1.399       .  A
C341        H348   1.084       .  S
C342       C1057   1.413   1_655  A
C342        S344   1.805       .  S
S343        H346   1.406       .  S
S344        H345   1.404       .  S
C349        C890   1.398       .  A
C349        C354   1.409       .  A
C350        C889   1.398   1_556  A
C350        C351   1.398       .  A
C350        H359   1.084       .  S
C351        C892   1.421       .  A
C351        S355   1.800       .  S
C352        C914   1.487       .  S
C352        C891   1.421       .  A
C352        C353   1.408       .  A
C353        C354   1.399       .  A
C353        H360   1.084       .  S
C354        S356   1.803       .  S
S355        H358   1.407   1_655  S
S356        H357   1.405       .  S
O361        C551   1.263   1_554  A
O362       V1089   1.898       .  S
O362        C552   1.264   1_554  A
O363        V369   1.899       .  S
O363       C1093   1.265   1_554  A
O364        V729   1.904       .  S
O364       C1094   1.267   1_554  A
O365        V730   1.892       .  S
O365        C554   1.261       .  A
O366        V370   1.896       .  S
O366        C553   1.263       .  A
O368       V1090   1.900   1_455  S
V369       O1082   1.898       .  S
V369        O724   1.904   1_665  S
V369       V1270   2.086   1_554  T
V370        O725   1.892   1_565  S
V370       O1088   1.900       .  S
V370       V1269   2.086       .  T
C371        O541   1.263       .  A
C371        C493   1.471       .  S
C372        O542   1.264       .  A
C372        C505   1.477   1_565  S
C373       O1083   1.265   1_556  A
C373        O546   1.263       .  A
C373        C520   1.478       .  S
C374       O1084   1.267   1_656  A
C374        O545   1.261       .  A
C374       C1252   1.487       .  S
O376       V1103   1.902   1_545  S
O376        C386   1.266   1_545  A
O377        V383   1.898   1_655  S
O377       C1107   1.264   1_655  A
O378        V743   1.895       .  S
O378        C388   1.263       .  A
O379        V744   1.903       .  S
O379       C1108   1.265       .  A
O380        V384   1.901       .  S
O380        C387   1.265       .  A
O382       V1104   1.897       .  S
O382        C385   1.263       .  A
V383       O1096   1.902   1_465  S
V383        O738   1.895   1_565  S
V383       V1104   2.088       .  T
V384        O739   1.903   1_565  S
V384       O1102   1.897       .  S
V384       V1103   2.088       .  T
C385        C445   1.469       .  S
C386        C457   1.486   1_565  S
C387       O1097   1.264       .  A
C387        C469   1.478       .  S
C388       O1099   1.265       .  A
C388        C481   1.473       .  S
O389        V397   1.895       .  S
O389       C1119   1.263       .  A
O390        V577   1.898       .  S
O390       C1120   1.263       .  A
O391        V397   1.899       .  S
O391       C1121   1.264       .  A
O392        V577   1.901       .  S
O392       C1302   1.264   1_455  A
O393        V578   1.898   1_556  S
O393        C402   1.263   1_556  A
O394        V398   1.897       .  S
O394        C581   1.263       .  A
O395        V398   1.899       .  S
O395        C400   1.264       .  A
O396        V578   1.898       .  S
O396        C399   1.264       .  A
V397        O570   1.898   1_554  S
V397        O572   1.901       .  S
V397       V1298   2.089   1_455  T
V398        O573   1.898       .  S
V398        O576   1.898       .  S
V398       V1297   2.089       .  T
C399       O1109   1.263       .  A
C399        C414   1.461       .  S
C400       O1110   1.263       .  A
C400        C413   1.463       .  S
C401       O1111   1.264       .  A
C401        O574   1.263       .  A
C401        C517   1.472       .  S
C402       O1292   1.264       .  A
C402        C529   1.467       .  S
O403        V411   1.899       .  S
O403       C1133   1.264       .  A
O404        V411   1.897       .  S
O404       C1134   1.264       .  A
O405        V411   1.899       .  S
O405       C1135   1.264       .  A
O406        V411   1.897       .  S
O406       C1136   1.263       .  A
O407        V412   1.899       .  S
O407        C416   1.265       .  A
O408        V412   1.901       .  S
O408        C415   1.265       .  A
O409        V412   1.896       .  S
O409        C414   1.263       .  A
O410        V412   1.896       .  S
O410        C413   1.263       .  A
V411       V1132   2.089   1_455  T
V412       V1131   2.089       .  T
C413       O1123   1.264       .  A
C414       O1124   1.264       .  A
C415       O1125   1.264       .  A
C415        C472   1.475       .  S
C416       O1126   1.263       .  A
C416        C484   1.476       .  S
O417        V425   1.897       .  S
O418        V605   1.897       .  S
O419        V425   1.902       .  S
O420        V605   1.903       .  S
O421        V606   1.899       .  S
O421        C430   1.265   1_565  A
O422        V426   1.897       .  S
O422        C609   1.263   1_565  A
O423        V426   1.897       .  S
O423        C428   1.263   1_565  A
O424        V606   1.899       .  S
O424        C427   1.264   1_565  A
V425        O598   1.897       .  S
V425        O600   1.903       .  S
V426        O601   1.899   1_554  S
V426        O604   1.899   1_554  S
C427        C441   1.463       .  S
C428        C442   1.461       .  S
C429        O602   1.263   1_545  A
C429        C508   1.473       .  S
C430        C496   1.485       .  S
O431        V439   1.896       .  S
O431        C441   1.263   1_565  A
O432        V439   1.898       .  S
O432        C442   1.264   1_565  A
O433        V439   1.900       .  S
O433        C443   1.263   1_565  A
O434        V439   1.897       .  S
O434        C444   1.265   1_565  A
O435        V440   1.899       .  S
O436        V440   1.901       .  S
O437        V440   1.896       .  S
O438        V440   1.900       .  S
C443        C460   1.470       .  S
C444        C448   1.482       .  S
C445        C450   1.409       .  A
C446        C447   1.400       .  A
C446        H455   1.084       .  S
C447        S451   1.801       .  S
C448        C449   1.406   1_545  A
C449        C450   1.398       .  A
C449        H456   1.084       .  S
C450        S452   1.802       .  S
S451        H454   1.405       .  S
S452        H453   1.406       .  S
C457        C458   1.407   1_545  A
C458        C459   1.398       .  A
C458        H467   1.084       .  S
C459        C460   1.409   1_565  A
C459        S463   1.803       .  S
C461        C462   1.403       .  A
C461        H468   1.083       .  S
C462        S464   1.809       .  S
S463        H466   1.405       .  S
S464        H465   1.407       .  S
C469       C1190   1.403       .  A
C469        C474   1.414       .  A
C470       C1189   1.403   1_455  A
C470        C471   1.398       .  A
C470        H479   1.083       .  S
C471       C1192   1.414   1_455  A
C471        S475   1.804       .  S
C472       C1191   1.414       .  A
C472        C473   1.403       .  A
C473        C474   1.404       .  A
C473        H480   1.083       .  S
C474        S476   1.809       .  S
S475        H478   1.404       .  S
S476        H477   1.407       .  S
C481       C1202   1.402       .  A
C481        C486   1.411       .  A
C482       C1201   1.402       .  A
C482        C483   1.399       .  A
C482        H491   1.084       .  S
C483       C1204   1.415       .  A
C483        S487   1.803       .  S
C484       C1203   1.415       .  A
C484        C485   1.403       .  A
C485        C486   1.397       .  A
C485        H492   1.084       .  S
C486        S488   1.798       .  S
S487        H490   1.407       .  S
S488        H489   1.406       .  S
C493        C494   1.401       .  A
C494        C495   1.400       .  A
C494        H503   1.084       .  S
C495        S499   1.801       .  S
C496        C677   1.407   1_545  A
C497        C676   1.407   1_564  A
C497        C498   1.400       .  A
C497        H504   1.084       .  S
C498        S500   1.804       .  S
S499        H502   1.405       .  S
S500        H501   1.405       .  S
C505        C686   1.403   1_545  A
C506        C685   1.403   1_564  A
C506        C507   1.399       .  A
C506        H515   1.084       .  S
C507        C688   1.412   1_565  A
C507        S511   1.803       .  S
C508        C687   1.412   1_545  A
C509        C510   1.400       .  A
C509        H516   1.084       .  S
C510        S512   1.801       .  S
S511        H514   1.406       .  S
S512        H513   1.406       .  S
C517        C698   1.402   1_554  A
C517       C1242   1.413       .  A
C518        C697   1.402       .  A
C518        C519   1.398       .  A
C518        H527   1.084       .  S
C519        C700   1.415       .  A
C519        S523   1.800       .  S
C520        C699   1.415       .  A
C520       C1241   1.404   1_556  A
C521       C1240   1.404   1_554  A
C521        C522   1.399       .  A
C521        H528   1.084       .  S
C522       C1237   1.413   1_655  A
C522        S524   1.805       .  S
S523        H526   1.406       .  S
S524        H525   1.404       .  S
C529       C1430   1.398   1_554  A
C529        C534   1.409       .  A
C530       C1429   1.398       .  A
C530        C531   1.398       .  A
C530        H539   1.084       .  S
C531       C1432   1.421       .  A
C531        S535   1.800       .  S
C532       C1094   1.487       .  S
C532       C1431   1.421       .  A
C532        C533   1.408   1_556  A
C533        C534   1.399       .  A
C533        H540   1.084       .  S
C534        S536   1.803       .  S
S535        H538   1.407   1_655  S
S536        H537   1.405       .  S
O542       V1269   1.898       .  S
O543        V549   1.899       .  S
O543       C1273   1.265       .  A
O544        V909   1.904       .  S
O544       C1274   1.267       .  A
O545        V910   1.892       .  S
O546        V550   1.896       .  S
O548       V1270   1.900   1_455  S
V549       O1262   1.898       .  S
V549        O904   1.904   1_665  S
V549       V1090   2.086       .  T
V550        O905   1.892   1_565  S
V550       O1268   1.900       .  S
V550       V1089   2.086   1_556  T
C551        C673   1.471       .  S
C552        C685   1.477   1_565  S
C553       O1263   1.265       .  A
C553        C700   1.478       .  S
C554       O1264   1.267   1_655  A
C554       C1432   1.487       .  S
O556       V1283   1.902   1_545  S
O556        C566   1.266   1_545  A
O557        V563   1.898   1_655  S
O557       C1287   1.264   1_655  A
O558        V923   1.895       .  S
O558        C568   1.263       .  A
O559        V924   1.903       .  S
O559       C1288   1.265       .  A
O560        V564   1.901       .  S
O560        C567   1.265       .  A
O562       V1284   1.897       .  S
O562        C565   1.263       .  A
V563       O1276   1.902   1_465  S
V563        O918   1.895   1_565  S
V563       V1284   2.088       .  T
V564        O919   1.903   1_565  S
V564       O1282   1.897       .  S
V564       V1283   2.088       .  T
C565        C625   1.469       .  S
C566        C637   1.486   1_565  S
C567       O1277   1.264       .  A
C567        C649   1.478       .  S
C568       O1279   1.265       .  A
C568        C661   1.473       .  S
O569        V577   1.895       .  S
O569       C1299   1.263       .  A
O570       C1300   1.263       .  A
O571        V577   1.899       .  S
O571       C1301   1.264       .  A
O572       C1122   1.264   1_455  A
O573        C582   1.263       .  A
O574        V578   1.897       .  S
O575        V578   1.899   1_556  S
O575        C580   1.264       .  A
O576        C579   1.264       .  A
V577       V1118   2.089   1_455  T
V578       V1117   2.089       .  T
C579       O1289   1.263       .  A
C579        C594   1.461       .  S
C580       O1290   1.263       .  A
C580        C593   1.463       .  S
C581       O1291   1.264       .  A
C581        C697   1.472       .  S
C582       O1112   1.264       .  A
C582        C709   1.467       .  S
O583        V591   1.899       .  S
O583       C1313   1.264       .  A
O584        V591   1.897       .  S
O584       C1314   1.264       .  A
O585        V591   1.899       .  S
O585       C1315   1.264       .  A
O586        V591   1.897       .  S
O586       C1316   1.263       .  A
O587        V592   1.899       .  S
O587        C596   1.265       .  A
O588        V592   1.901       .  S
O588        C595   1.265       .  A
O589        V592   1.896       .  S
O589        C594   1.263       .  A
O590        V592   1.896       .  S
O590        C593   1.263       .  A
V591       V1312   2.089   1_455  T
V592       V1311   2.089       .  T
C593       O1303   1.264       .  A
C594       O1304   1.264       .  A
C595       O1305   1.264       .  A
C595        C652   1.475       .  S
C596       O1306   1.263       .  A
C596        C664   1.476       .  S
O597        V605   1.897   1_556  S
O599        V605   1.902   1_556  S
O601        C610   1.265   1_565  A
O602        V606   1.897       .  S
O603        V606   1.897       .  S
O603        C608   1.263   1_565  A
O604        C607   1.264   1_565  A
C607        C621   1.463       .  S
C608        C622   1.461       .  S
C609        C688   1.473       .  S
C610        C676   1.485       .  S
O611        V619   1.896       .  S
O611        C621   1.263   1_565  A
O612        V619   1.898       .  S
O612        C622   1.264   1_565  A
O613        V619   1.900       .  S
O613        C623   1.263   1_565  A
O614        V619   1.897       .  S
O614        C624   1.265   1_565  A
O615        V620   1.899       .  S
O616        V620   1.901       .  S
O617        V620   1.896       .  S
O618        V620   1.900       .  S
C623        C640   1.470       .  S
C624        C628   1.482       .  S
C625        C630   1.409       .  A
C626        C627   1.400       .  A
C626        H635   1.084       .  S
C627        S631   1.801       .  S
C628        C629   1.406   1_545  A
C629        C630   1.398       .  A
C629        H636   1.084       .  S
C630        S632   1.802       .  S
S631        H634   1.405       .  S
S632        H633   1.406       .  S
C637        C638   1.407   1_545  A
C638        C639   1.398       .  A
C638        H647   1.084       .  S
C639        C640   1.409   1_565  A
C639        S643   1.803       .  S
C641        C642   1.403       .  A
C641        H648   1.083       .  S
C642        S644   1.809       .  S
S643        H646   1.405       .  S
S644        H645   1.407       .  S
C649       C1370   1.403       .  A
C649        C654   1.414       .  A
C650       C1369   1.403   1_455  A
C650        C651   1.398       .  A
C650        H659   1.083       .  S
C651       C1372   1.414   1_455  A
C651        S655   1.804       .  S
C652       C1371   1.414       .  A
C652        C653   1.403       .  A
C653        C654   1.404       .  A
C653        H660   1.083       .  S
C654        S656   1.809       .  S
S655        H658   1.404       .  S
S656        H657   1.407       .  S
C661       C1382   1.402       .  A
C661        C666   1.411       .  A
C662       C1381   1.402       .  A
C662        C663   1.399       .  A
C662        H671   1.084       .  S
C663       C1384   1.415       .  A
C663        S667   1.803       .  S
C664       C1383   1.415       .  A
C664        C665   1.403       .  A
C665        C666   1.397       .  A
C665        H672   1.084       .  S
C666        S668   1.798       .  S
S667        H670   1.407       .  S
S668        H669   1.406       .  S
C673        C674   1.401       .  A
C674        C675   1.400       .  A
C674        H683   1.084       .  S
C675        S679   1.801       .  S
C677        C678   1.400       .  A
C677        H684   1.084       .  S
C678        S680   1.804       .  S
S679        H682   1.405       .  S
S680        H681   1.405       .  S
C686        C687   1.399       .  A
C686        H695   1.084       .  S
C687        S691   1.803       .  S
C689        C690   1.400       .  A
C689        H696   1.084       .  S
C690        S692   1.801       .  S
S691        H694   1.406       .  S
S692        H693   1.406       .  S
C697       C1422   1.413       .  A
C698        C699   1.398       .  A
C698        H707   1.084       .  S
C699        S703   1.800       .  S
C700       C1421   1.404       .  A
C701       C1420   1.404       .  A
C701        C702   1.399       .  A
C701        H708   1.084       .  S
C702       C1417   1.413   1_655  A
C702        S704   1.805       .  S
S703        H706   1.406       .  S
S704        H705   1.404       .  S
C709       C1250   1.398       .  A
C709        C714   1.409       .  A
C710       C1249   1.398   1_556  A
C710        C711   1.398       .  A
C710        H719   1.084       .  S
C711       C1252   1.421       .  A
C711        S715   1.800       .  S
C712       C1274   1.487       .  S
C712       C1251   1.421       .  A
C712        C713   1.408       .  A
C713        C714   1.399       .  A
C713        H720   1.084       .  S
C714        S716   1.803       .  S
S715        H718   1.407   1_655  S
S716        H717   1.405       .  S
O721       V1089   1.900       .  S
O721        C911   1.263   1_554  A
O722        C912   1.264   1_554  A
O723        V729   1.899       .  S
O725        C914   1.261       .  A
O726        V730   1.896   1_455  S
O726        C913   1.263   1_455  A
O727       V1090   1.901       .  S
O727       C1092   1.265       .  A
O728       C1091   1.264       .  A
V729       O1081   1.900       .  S
V730       O1087   1.901       .  S
C731        O901   1.263       .  A
C731       O1088   1.264       .  A
C731        C853   1.471       .  S
C732        O902   1.264       .  A
C732       O1087   1.265       .  A
C732        C865   1.477       .  S
C733        O906   1.263   1_655  A
C733        C880   1.478       .  S
C734        O905   1.261       .  A
O735       V1103   1.901       .  S
O735       C1105   1.264       .  A
O736        C746   1.266       .  A
O737        V743   1.898       .  S
O738        C748   1.263       .  A
O740        V744   1.901       .  S
O740        C747   1.265       .  A
O741       V1104   1.896   1_655  S
O741       C1106   1.263       .  A
O742        C745   1.263       .  A
V743       O1095   1.901       .  S
V744       O1101   1.896   1_455  S
C745       O1095   1.264       .  A
C745        C805   1.469       .  S
C746       O1101   1.263       .  A
C746        C817   1.486       .  S
C747        C829   1.478   1_455  S
C748        C841   1.473       .  S
O749        V757   1.895       .  S
O750        V937   1.898       .  S
O751        V757   1.899       .  S
O752        V937   1.901       .  S
O753        V938   1.898   1_556  S
O753        C762   1.263   1_556  A
O754        V758   1.897       .  S
O754        C941   1.263   1_655  A
O755        V758   1.899       .  S
O755        C760   1.264   1_655  A
O756        V938   1.898       .  S
O756        C759   1.264   1_655  A
V757        O930   1.898   1_554  S
V757        O932   1.901       .  S
V758        O933   1.898       .  S
V758        O936   1.898       .  S
C759        C774   1.461       .  S
C760        C773   1.463       .  S
C761        O934   1.263   1_455  A
C761        C877   1.472       .  S
C762        C889   1.467       .  S
O763        V771   1.899       .  S
O764        V771   1.897       .  S
O765        V771   1.899       .  S
O766        V771   1.897       .  S
O767        V772   1.899       .  S
O767        C776   1.265   1_655  A
O768        V772   1.901       .  S
O768        C775   1.265   1_655  A
O769        V772   1.896       .  S
O769        C774   1.263   1_655  A
O770        V772   1.896       .  S
O770        C773   1.263   1_655  A
C775        C832   1.475   1_455  S
C776        C844   1.476       .  S
O777        V785   1.897       .  S
O777       C1147   1.263       .  A
O778        V965   1.897       .  S
O778       C1148   1.263       .  A
O779        V785   1.902       .  S
O779       C1149   1.265       .  A
O780        V965   1.903       .  S
O780       C1330   1.265   1_554  A
O781        V966   1.899       .  S
O781        C790   1.265       .  A
O782        V786   1.897       .  S
O782        C969   1.263       .  A
O783        V786   1.897       .  S
O783        C788   1.263       .  A
O784        V966   1.899       .  S
O784        C787   1.264       .  A
V785        O958   1.897       .  S
V785        O960   1.903       .  S
V785       V1326   2.088   1_545  T
V786        O961   1.899   1_554  S
V786        O964   1.899   1_554  S
V786       V1325   2.088       .  T
C787       O1137   1.263       .  A
C787        C801   1.463       .  S
C788       O1138   1.263       .  A
C788        C802   1.461       .  S
C789       O1139   1.265       .  A
C789        O962   1.263       .  A
C789        C868   1.473       .  S
C790       O1320   1.265       .  A
C790        C856   1.485       .  S
O791        V799   1.896       .  S
O791        C801   1.263       .  A
O792        V799   1.898       .  S
O792        C802   1.264       .  A
O793        V799   1.900       .  S
O793        C803   1.263       .  A
O794        V799   1.897       .  S
O794        C804   1.265       .  A
O795        V800   1.899       .  S
O795       C1164   1.264       .  A
O796        V800   1.901       .  S
O796       C1163   1.264       .  A
O797        V800   1.896       .  S
O797       C1162   1.263       .  A
O798        V800   1.900       .  S
O798       C1161   1.264       .  A
V799       V1160   2.089       .  T
V800       V1159   2.089   1_545  T
C801       O1158   1.264       .  A
C802       O1157   1.263       .  A
C803       O1156   1.264       .  A
C803        C820   1.470       .  S
C804       O1155   1.264       .  A
C804        C808   1.482       .  S
C805       C1166   1.400       .  A
C805        C810   1.409       .  A
C806       C1165   1.400   1_545  A
C806        C807   1.400       .  A
C806        H815   1.085       .  S
C807       C1168   1.418       .  A
C807        S811   1.801       .  S
C808       C1167   1.418       .  A
C808        C809   1.406       .  A
C809        C810   1.398       .  A
C809        H816   1.084       .  S
C810        S812   1.802       .  S
S811        H814   1.405       .  S
S812        H813   1.406       .  S
C817        C818   1.407       .  A
C817       C1182   1.420       .  A
C818        C819   1.398       .  A
C818        H827   1.084       .  S
C819        C820   1.409       .  A
C819        S823   1.803       .  S
C820       C1181   1.399       .  A
C821       C1180   1.399       .  A
C821        C822   1.403       .  A
C821        H828   1.083       .  S
C822       C1177   1.420       .  A
C822        S824   1.809       .  S
S823        H826   1.405       .  S
S824        H825   1.407       .  S
C829        C834   1.414       .  A
C830        C831   1.398       .  A
C830        H839   1.084       .  S
C831        S835   1.804       .  S
C832        C833   1.403       .  A
C833        C834   1.404       .  A
C833        H840   1.083       .  S
C834        S836   1.809       .  S
S835        H838   1.404       .  S
S836        H837   1.407       .  S
C841        C846   1.411   1_455  A
C842        C843   1.399       .  A
C842        H851   1.084       .  S
C843        S847   1.803       .  S
C844        C845   1.403   1_455  A
C845        C846   1.397       .  A
C845        H852   1.084       .  S
C846        S848   1.798       .  S
S847        H850   1.407       .  S
S848        H849   1.406       .  S
C853        C854   1.401   1_565  A
C853       C1398   1.411       .  A
C854        C855   1.400       .  A
C854        H863   1.084       .  S
C855       C1216   1.417       .  A
C855        S859   1.801       .  S
C856       C1215   1.417       .  A
C856       C1037   1.407       .  A
C857       C1036   1.407   1_554  A
C857        C858   1.400       .  A
C857        H864   1.084       .  S
C858       C1393   1.411   1_554  A
C858        S860   1.804       .  S
S859        H862   1.405       .  S
S860        H861   1.405       .  S
C865       C1046   1.403       .  A
C865       C1230   1.414       .  A
C866       C1045   1.403   1_554  A
C866        C867   1.399       .  A
C866        H875   1.084       .  S
C867       C1048   1.412       .  A
C867        S871   1.803       .  S
C868       C1047   1.412       .  A
C868       C1229   1.402       .  A
C869       C1228   1.402       .  A
C869        C870   1.400       .  A
C869        H876   1.084       .  S
C870       C1225   1.414       .  A
C870        S872   1.801       .  S
S871        H874   1.406       .  S
S872        H873   1.406       .  S
C877       C1058   1.402   1_554  A
C878       C1057   1.402       .  A
C878        C879   1.398       .  A
C878        H887   1.084       .  S
C879       C1060   1.415   1_455  A
C879        S883   1.800       .  S
C880       C1059   1.415   1_655  A
C881        C882   1.399       .  A
C881        H888   1.084       .  S
C882        S884   1.805       .  S
S883        H886   1.406       .  S
S884        H885   1.404       .  S
C889        C894   1.409   1_655  A
C890        C891   1.398       .  A
C890        H899   1.084       .  S
C891        S895   1.800       .  S
C892        C893   1.408   1_656  A
C893        C894   1.399       .  A
C893        H900   1.084       .  S
C894        S896   1.803       .  S
S895        H898   1.407       .  S
S896        H897   1.405   1_455  S
O901       V1269   1.900       .  S
O903        V909   1.899       .  S
O906        V910   1.896   1_455  S
O907       V1270   1.901       .  S
O907       C1272   1.265       .  A
O908       C1271   1.264       .  A
V909       O1261   1.900       .  S
V910       O1267   1.901       .  S
C911       O1268   1.264       .  A
C911       C1033   1.471       .  S
C912       O1267   1.265       .  A
C912       C1045   1.477       .  S
C913       C1060   1.478       .  S
O915       V1283   1.901       .  S
O915       C1285   1.264       .  A
O916        C926   1.266       .  A
O917        V923   1.898       .  S
O918        C928   1.263       .  A
O920        V924   1.901       .  S
O920        C927   1.265       .  A
O921       V1284   1.896   1_655  S
O921       C1286   1.263       .  A
O922        C925   1.263       .  A
V923       O1275   1.901       .  S
V924       O1281   1.896   1_455  S
C925       O1275   1.264       .  A
C925        C985   1.469       .  S
C926       O1281   1.263       .  A
C926        C997   1.486       .  S
C927       C1009   1.478   1_455  S
C928       C1021   1.473       .  S
O929        V937   1.895       .  S
O931        V937   1.899       .  S
O933        C942   1.263       .  A
O934        V938   1.897       .  S
O935        V938   1.899   1_556  S
O935        C940   1.264   1_655  A
O936        C939   1.264   1_655  A
C939        C954   1.461       .  S
C940        C953   1.463       .  S
C941       C1057   1.472       .  S
C942       C1069   1.467       .  S
O943        V951   1.899       .  S
O944        V951   1.897       .  S
O945        V951   1.899       .  S
O946        V951   1.897       .  S
O947        V952   1.899       .  S
O947        C956   1.265   1_655  A
O948        V952   1.901       .  S
O948        C955   1.265   1_655  A
O949        V952   1.896       .  S
O949        C954   1.263   1_655  A
O950        V952   1.896       .  S
O950        C953   1.263   1_655  A
C955       C1012   1.475   1_455  S
C956       C1024   1.476       .  S
O957        V965   1.897   1_556  S
O957       C1327   1.263       .  A
O958       C1328   1.263       .  A
O959        V965   1.902   1_556  S
O959       C1329   1.265   1_556  A
O960       C1150   1.265       .  A
O961        C970   1.265       .  A
O962        V966   1.897       .  S
O963        V966   1.897       .  S
O963        C968   1.263       .  A
O964        C967   1.264       .  A
V965       V1146   2.088   1_545  T
V966       V1145   2.088       .  T
C967       O1317   1.263       .  A
C967        C981   1.463       .  S
C968       O1318   1.263       .  A
C968        C982   1.461       .  S
C969       O1319   1.265   1_554  A
C969       C1048   1.473       .  S
C970       O1140   1.265   1_556  A
C970       C1036   1.485       .  S
O971        V979   1.896       .  S
O971        C981   1.263       .  A
O972        V979   1.898       .  S
O972        C982   1.264       .  A
O973        V979   1.900       .  S
O973        C983   1.263       .  A
O974        V979   1.897       .  S
O974        C984   1.265       .  A
O975        V980   1.899       .  S
O975       C1344   1.264       .  A
O976        V980   1.901       .  S
O976       C1343   1.264       .  A
O977        V980   1.896       .  S
O977       C1342   1.263       .  A
O978        V980   1.900       .  S
O978       C1341   1.264       .  A
V979       V1340   2.089       .  T
V980       V1339   2.089   1_545  T
C981       O1338   1.264       .  A
C982       O1337   1.263       .  A
C983       O1336   1.264       .  A
C983       C1000   1.470       .  S
C984       O1335   1.264       .  A
C984        C988   1.482       .  S
C985       C1346   1.400       .  A
C985        C990   1.409       .  A
C986       C1345   1.400   1_545  A
C986        C987   1.400       .  A
C986        H995   1.084       .  S
C987       C1348   1.418       .  A
C987        S991   1.801       .  S
C988       C1347   1.418       .  A
C988        C989   1.406       .  A
C989        C990   1.398       .  A
C989        H996   1.084       .  S
C990        S992   1.802       .  S
S991        H994   1.405       .  S
S992        H993   1.406       .  S
C997        C998   1.407       .  A
C997       C1362   1.420       .  A
C998        C999   1.398       .  A
C998       H1007   1.084       .  S
C999       C1000   1.409       .  A
C999       S1003   1.803       .  S
C1000      C1361   1.399       .  A
C1001      C1360   1.399       .  A
C1001      C1002   1.403       .  A
C1001      H1008   1.083       .  S
C1002      C1357   1.420       .  A
C1002      S1004   1.809       .  S
S1003      H1006   1.405       .  S
S1004      H1005   1.407       .  S
C1009      C1014   1.414       .  A
C1010      C1011   1.398       .  A
C1010      H1019   1.083       .  S
C1011      S1015   1.804       .  S
C1012      C1013   1.403       .  A
C1013      C1014   1.404       .  A
C1013      H1020   1.083       .  S
C1014      S1016   1.809       .  S
S1015      H1018   1.404       .  S
S1016      H1017   1.407       .  S
C1021      C1026   1.411   1_455  A
C1022      C1023   1.399       .  A
C1022      H1031   1.084       .  S
C1023      S1027   1.803       .  S
C1024      C1025   1.403   1_455  A
C1025      C1026   1.397       .  A
C1025      H1032   1.084       .  S
C1026      S1028   1.798       .  S
S1027      H1030   1.407       .  S
S1028      H1029   1.406       .  S
C1033      C1034   1.401   1_565  A
C1033      C1218   1.411   1_556  A
C1034      C1035   1.400       .  A
C1034      H1043   1.084       .  S
C1035      C1396   1.417       .  A
C1035      S1039   1.801       .  S
C1036      C1395   1.417       .  A
C1037      C1038   1.400       .  A
C1037      H1044   1.084       .  S
C1038      C1213   1.411       .  A
C1038      S1040   1.804       .  S
S1039      H1042   1.405       .  S
S1040      H1041   1.405       .  S
C1045      C1410   1.414       .  A
C1046      C1047   1.399       .  A
C1046      H1055   1.084       .  S
C1047      S1051   1.803       .  S
C1048      C1409   1.402   1_554  A
C1049      C1408   1.402   1_556  A
C1049      C1050   1.400       .  A
C1049      H1056   1.084       .  S
C1050      C1405   1.414       .  A
C1050      S1052   1.801       .  S
S1051      H1054   1.406       .  S
S1052      H1053   1.406       .  S
C1058      C1059   1.398       .  A
C1058      H1067   1.084       .  S
C1059      S1063   1.800       .  S
C1061      C1062   1.399       .  A
C1061      H1068   1.084       .  S
C1062      S1064   1.805       .  S
S1063      H1066   1.406       .  S
S1064      H1065   1.404       .  S
C1069      C1074   1.409   1_655  A
C1070      C1071   1.398       .  A
C1070      H1079   1.084       .  S
C1071      S1075   1.800       .  S
C1072      C1073   1.408   1_655  A
C1073      C1074   1.399       .  A
C1073      H1080   1.084       .  S
C1074      S1076   1.803       .  S
S1075      H1078   1.407       .  S
S1076      H1077   1.405   1_455  S
O1081      C1271   1.263   1_554  A
O1082      C1272   1.264   1_554  A
O1083      V1089   1.899       .  S
O1085      C1274   1.261       .  A
O1086      V1090   1.896   1_455  S
O1086      C1273   1.263   1_455  A
C1091      O1261   1.263       .  A
C1091      C1213   1.471       .  S
C1092      O1262   1.264       .  A
C1092      C1225   1.477   1_565  S
C1093      O1266   1.263   1_655  A
C1093      C1240   1.478       .  S
C1094      O1265   1.261       .  A
O1096      C1106   1.266   1_545  A
O1097      V1103   1.898       .  S
O1098      C1108   1.263       .  A
O1100      V1104   1.901       .  S
O1100      C1107   1.265       .  A
O1102      C1105   1.263       .  A
C1105      C1165   1.469       .  S
C1106      C1177   1.486   1_565  S
C1107      C1189   1.478   1_455  S
C1108      C1201   1.473       .  S
O1109      V1117   1.895       .  S
O1110      V1297   1.898       .  S
O1111      V1117   1.899       .  S
O1112      V1297   1.901       .  S
O1113      V1298   1.898   1_556  S
O1113      C1122   1.263   1_556  A
O1114      V1118   1.897       .  S
O1114      C1301   1.263   1_655  A
O1115      V1118   1.899       .  S
O1115      C1120   1.264   1_655  A
O1116      V1298   1.898       .  S
O1116      C1119   1.264   1_655  A
V1117      O1290   1.898   1_554  S
V1117      O1292   1.901       .  S
V1118      O1293   1.898       .  S
V1118      O1296   1.898       .  S
C1119      C1134   1.461       .  S
C1120      C1133   1.463       .  S
C1121      O1294   1.263   1_455  A
C1121      C1237   1.472       .  S
C1122      C1249   1.467       .  S
O1123      V1131   1.899       .  S
O1124      V1131   1.897       .  S
O1125      V1131   1.899       .  S
O1126      V1131   1.897       .  S
O1127      V1132   1.899       .  S
O1127      C1136   1.265   1_655  A
O1128      V1132   1.901       .  S
O1128      C1135   1.265   1_655  A
O1129      V1132   1.896       .  S
O1129      C1134   1.263   1_655  A
O1130      V1132   1.896       .  S
O1130      C1133   1.263   1_655  A
C1135      C1192   1.475   1_455  S
C1136      C1204   1.476       .  S
O1137      V1145   1.897       .  S
O1138      V1325   1.897       .  S
O1139      V1145   1.902       .  S
O1140      V1325   1.903       .  S
O1141      V1326   1.899       .  S
O1141      C1150   1.265   1_565  A
O1142      V1146   1.897       .  S
O1142      C1329   1.263   1_565  A
O1143      V1146   1.897       .  S
O1143      C1148   1.263   1_565  A
O1144      V1326   1.899       .  S
O1144      C1147   1.264   1_565  A
V1145      O1318   1.897       .  S
V1145      O1320   1.903       .  S
V1146      O1321   1.899   1_554  S
V1146      O1324   1.899   1_554  S
C1147      C1161   1.463       .  S
C1148      C1162   1.461       .  S
C1149      O1322   1.263   1_545  A
C1149      C1228   1.473       .  S
C1150      C1216   1.485       .  S
O1151      V1159   1.896       .  S
O1151      C1161   1.263   1_565  A
O1152      V1159   1.898       .  S
O1152      C1162   1.264   1_565  A
O1153      V1159   1.900       .  S
O1153      C1163   1.263   1_565  A
O1154      V1159   1.897       .  S
O1154      C1164   1.265   1_565  A
O1155      V1160   1.899       .  S
O1156      V1160   1.901       .  S
O1157      V1160   1.896       .  S
O1158      V1160   1.900       .  S
C1163      C1180   1.470       .  S
C1164      C1168   1.482       .  S
C1165      C1170   1.409       .  A
C1166      C1167   1.400       .  A
C1166      H1175   1.085       .  S
C1167      S1171   1.801       .  S
C1168      C1169   1.406   1_545  A
C1169      C1170   1.398       .  A
C1169      H1176   1.084       .  S
C1170      S1172   1.802       .  S
S1171      H1174   1.405       .  S
S1172      H1173   1.406       .  S
C1177      C1178   1.407   1_545  A
C1178      C1179   1.398       .  A
C1178      H1187   1.084       .  S
C1179      C1180   1.409   1_565  A
C1179      S1183   1.803       .  S
C1181      C1182   1.403       .  A
C1181      H1188   1.083       .  S
C1182      S1184   1.809       .  S
S1183      H1186   1.405       .  S
S1184      H1185   1.407       .  S
C1189      C1194   1.414       .  A
C1190      C1191   1.398       .  A
C1190      H1199   1.083       .  S
C1191      S1195   1.804       .  S
C1192      C1193   1.403       .  A
C1193      C1194   1.404       .  A
C1193      H1200   1.083       .  S
C1194      S1196   1.809       .  S
S1195      H1198   1.404       .  S
S1196      H1197   1.407       .  S
C1201      C1206   1.411   1_455  A
C1202      C1203   1.399       .  A
C1202      H1211   1.084       .  S
C1203      S1207   1.803       .  S
C1204      C1205   1.403   1_455  A
C1205      C1206   1.397       .  A
C1205      H1212   1.084       .  S
C1206      S1208   1.798       .  S
S1207      H1210   1.407       .  S
S1208      H1209   1.406       .  S
C1213      C1214   1.401       .  A
C1214      C1215   1.400       .  A
C1214      H1223   1.084       .  S
C1215      S1219   1.801       .  S
C1216      C1397   1.407   1_545  A
C1217      C1396   1.407   1_564  A
C1217      C1218   1.400       .  A
C1217      H1224   1.084       .  S
C1218      S1220   1.804       .  S
S1219      H1222   1.405       .  S
S1220      H1221   1.405       .  S
C1225      C1406   1.403   1_545  A
C1226      C1405   1.403   1_564  A
C1226      C1227   1.399       .  A
C1226      H1235   1.084       .  S
C1227      C1408   1.412   1_565  A
C1227      S1231   1.803       .  S
C1228      C1407   1.412   1_545  A
C1229      C1230   1.400       .  A
C1229      H1236   1.084       .  S
C1230      S1232   1.801       .  S
S1231      H1234   1.406       .  S
S1232      H1233   1.406       .  S
C1237      C1418   1.402   1_554  A
C1238      C1417   1.402       .  A
C1238      C1239   1.398       .  A
C1238      H1247   1.084       .  S
C1239      C1420   1.415   1_455  A
C1239      S1243   1.800       .  S
C1240      C1419   1.415   1_655  A
C1241      C1242   1.399       .  A
C1241      H1248   1.084       .  S
C1242      S1244   1.805       .  S
S1243      H1246   1.406       .  S
S1244      H1245   1.404       .  S
C1249      C1254   1.409   1_655  A
C1250      C1251   1.398       .  A
C1250      H1259   1.084       .  S
C1251      S1255   1.800       .  S
C1252      C1253   1.408   1_656  A
C1253      C1254   1.399       .  A
C1253      H1260   1.084       .  S
C1254      S1256   1.803       .  S
S1255      H1258   1.407       .  S
S1256      H1257   1.405   1_455  S
O1263      V1269   1.899       .  S
O1266      V1270   1.896   1_455  S
C1271      C1393   1.471       .  S
C1272      C1405   1.477   1_565  S
C1273      C1420   1.478       .  S
O1276      C1286   1.266   1_545  A
O1277      V1283   1.898       .  S
O1278      C1288   1.263       .  A
O1280      V1284   1.901       .  S
O1280      C1287   1.265       .  A
O1282      C1285   1.263       .  A
C1285      C1345   1.469       .  S
C1286      C1357   1.486   1_565  S
C1287      C1369   1.478   1_455  S
C1288      C1381   1.473       .  S
O1289      V1297   1.895       .  S
O1291      V1297   1.899       .  S
O1293      C1302   1.263       .  A
O1294      V1298   1.897       .  S
O1295      V1298   1.899   1_556  S
O1295      C1300   1.264   1_655  A
O1296      C1299   1.264   1_655  A
C1299      C1314   1.461       .  S
C1300      C1313   1.463       .  S
C1301      C1417   1.472       .  S
C1302      C1429   1.467       .  S
O1303      V1311   1.899       .  S
O1304      V1311   1.897       .  S
O1305      V1311   1.899       .  S
O1306      V1311   1.897       .  S
O1307      V1312   1.899       .  S
O1307      C1316   1.265   1_655  A
O1308      V1312   1.901       .  S
O1308      C1315   1.265   1_655  A
O1309      V1312   1.896       .  S
O1309      C1314   1.263   1_655  A
O1310      V1312   1.896       .  S
O1310      C1313   1.263   1_655  A
C1315      C1372   1.475   1_455  S
C1316      C1384   1.476       .  S
O1317      V1325   1.897   1_556  S
O1319      V1325   1.902   1_556  S
O1321      C1330   1.265   1_565  A
O1322      V1326   1.897       .  S
O1323      V1326   1.897       .  S
O1323      C1328   1.263   1_565  A
O1324      C1327   1.264   1_565  A
C1327      C1341   1.463       .  S
C1328      C1342   1.461       .  S
C1329      C1408   1.473       .  S
C1330      C1396   1.485       .  S
O1331      V1339   1.896       .  S
O1331      C1341   1.263   1_565  A
O1332      V1339   1.898       .  S
O1332      C1342   1.264   1_565  A
O1333      V1339   1.900       .  S
O1333      C1343   1.263   1_565  A
O1334      V1339   1.897       .  S
O1334      C1344   1.265   1_565  A
O1335      V1340   1.899       .  S
O1336      V1340   1.901       .  S
O1337      V1340   1.896       .  S
O1338      V1340   1.900       .  S
C1343      C1360   1.470       .  S
C1344      C1348   1.482       .  S
C1345      C1350   1.409       .  A
C1346      C1347   1.400       .  A
C1346      H1355   1.084       .  S
C1347      S1351   1.801       .  S
C1348      C1349   1.406   1_545  A
C1349      C1350   1.398       .  A
C1349      H1356   1.084       .  S
C1350      S1352   1.802       .  S
S1351      H1354   1.405       .  S
S1352      H1353   1.406       .  S
C1357      C1358   1.407   1_545  A
C1358      C1359   1.398       .  A
C1358      H1367   1.084       .  S
C1359      C1360   1.409   1_565  A
C1359      S1363   1.803       .  S
C1361      C1362   1.403       .  A
C1361      H1368   1.083       .  S
C1362      S1364   1.809       .  S
S1363      H1366   1.405       .  S
S1364      H1365   1.407       .  S
C1369      C1374   1.414       .  A
C1370      C1371   1.398       .  A
C1370      H1379   1.083       .  S
C1371      S1375   1.804       .  S
C1372      C1373   1.403       .  A
C1373      C1374   1.404       .  A
C1373      H1380   1.083       .  S
C1374      S1376   1.809       .  S
S1375      H1378   1.404       .  S
S1376      H1377   1.407       .  S
C1381      C1386   1.411   1_455  A
C1382      C1383   1.399       .  A
C1382      H1391   1.084       .  S
C1383      S1387   1.803       .  S
C1384      C1385   1.403   1_455  A
C1385      C1386   1.397       .  A
C1385      H1392   1.084       .  S
C1386      S1388   1.798       .  S
S1387      H1390   1.407       .  S
S1388      H1389   1.406       .  S
C1393      C1394   1.401       .  A
C1394      C1395   1.400       .  A
C1394      H1403   1.084       .  S
C1395      S1399   1.801       .  S
C1397      C1398   1.400       .  A
C1397      H1404   1.084       .  S
C1398      S1400   1.804       .  S
S1399      H1402   1.405       .  S
S1400      H1401   1.405       .  S
C1406      C1407   1.399       .  A
C1406      H1415   1.084       .  S
C1407      S1411   1.803       .  S
C1409      C1410   1.400       .  A
C1409      H1416   1.084       .  S
C1410      S1412   1.801       .  S
S1411      H1414   1.406       .  S
S1412      H1413   1.406       .  S
C1418      C1419   1.398       .  A
C1418      H1427   1.084       .  S
C1419      S1423   1.800       .  S
C1421      C1422   1.399       .  A
C1421      H1428   1.084       .  S
C1422      S1424   1.805       .  S
S1423      H1426   1.406       .  S
S1424      H1425   1.404       .  S
C1429      C1434   1.409   1_655  A
C1430      C1431   1.398       .  A
C1430      H1439   1.085       .  S
C1431      S1435   1.800       .  S
C1432      C1433   1.408   1_655  A
C1433      C1434   1.399       .  A
C1433      H1440   1.084       .  S
C1434      S1436   1.803       .  S
S1435      H1438   1.407       .  S
S1436      H1437   1.405   1_455  S
