geometry optimzed in LAMMPS
_audit_creation_date              2020-11-30 
_audit_creation_method            'lammps2cif' 
_symmetry_space_group_name_H-M    'P1' 
_symmetry_Int_Tables_number       1 
_symmetry_cell_setting            triclinic 
loop_ 
_symmetry_equiv_pos_as_xyz 
  x,y,z 
_cell_length_a                    34.63979645 
_cell_length_b                    26.60978355966098 
_cell_length_c                    37.62028839312923 
_cell_angle_alpha                 89.62801555435958 
_cell_angle_beta                  89.56150582961861 
_cell_angle_gamma                 91.27988158105873 
loop_ 
_atom_site_label 
_atom_site_type_symbol 
_atom_site_fract_x 
_atom_site_fract_y 
_atom_site_fract_z 
_atom_site_charge 
O1          O  0.28181727  0.45006146  0.03278099    -0.71600
O2          O  0.27985839  0.54942595  0.45914471    -0.71800
O3          O  0.28233439  0.55110368  0.03062819    -0.71700
O4          O  0.28017279  0.44833949  0.46119897    -0.71700
O5          O  0.21748984  0.44637070  0.46331791    -0.71600
O6          O  0.21964555  0.54977507  0.03234842    -0.71600
O7          O  0.21714895  0.54639571  0.46077335    -0.71600
O8          O  0.21909807  0.44984184  0.03479604    -0.71800
V9          V  0.27988112  0.49969438  0.99594458     1.35200
V10         V  0.21961733  0.49813250  0.49776052     1.35200
C11         C  0.25051107  0.43426946  0.04694061     0.77700
C12         C  0.24794765  0.56407050  0.44706588     0.77700
C13         C  0.25141713  0.56744718  0.04371384     0.77600
C14         C  0.24848614  0.43040891  0.45002507     0.77500
O15         O  0.03063774  0.96048195  0.04391278    -0.71600
O16         O  0.02930269  0.04715864  0.46359901    -0.71800
O17         O  0.02681024  0.05971169  0.03451719    -0.71700
O18         O  0.03248940  0.94751916  0.47255270    -0.71700
O19         O  0.46994270  0.94508407  0.46897303    -0.71600
O20         O  0.46447008  0.04957049  0.03683830    -0.71600
O21         O  0.46661056  0.04641310  0.46525867    -0.71600
O22         O  0.46845768  0.94959358  0.04058915    -0.71800
V23         V  0.02861441  0.00349259  0.00358198     1.35200
V24         V  0.46851063  0.99775777  0.00282432     1.35200
C25         C  0.99984784  0.94065124  0.05621615     0.77700
C26         C  0.99790561  0.06274465  0.45130401     0.77700
C27         C  0.99463268  0.07229407  0.04739622     0.77600
C28         C  0.00215837  0.92835591  0.45916609     0.77500
C29         C  0.46094289  0.26334368  0.25261584     0.30200
C30         C  0.04024334  0.26062928  0.24709051     0.30200
C31         C  0.48230496  0.31537622  0.25050906    -0.06000
C32         C  0.48206223  0.23891599  0.28386539    -0.06800
C33         C  0.47734066  0.23686867  0.21994694    -0.06600
C34         C  0.02269647  0.31374775  0.24668595    -0.06000
C35         C  0.02192368  0.23681460  0.28074232    -0.06800
C36         C  0.01727461  0.23547571  0.21672856    -0.06700
C37         C  0.03633369  0.36290144  0.24413744    -0.32000
N38         N  0.00617589  0.39393737  0.24837039     0.14500
C39         C  0.47347131  0.36574177  0.25311999    -0.32000
H40         H  0.44591743  0.38168770  0.25954800     0.16400
C41         C  0.03499005  0.21150641  0.31027910    -0.31000
N42         N  0.00415570  0.19816237  0.33122410     0.13200
C43         C  0.47192687  0.21621541  0.31578269    -0.31000
C44         C  0.02471497  0.21638480  0.18328851    -0.31300
N45         N  0.99087207  0.20309098  0.16766741     0.13700
H46         H  0.05250051  0.21304515  0.17040804     0.16300
C47         C  0.46170094  0.21744959  0.18929619    -0.31300
H48         H  0.43134113  0.21548330  0.18296810     0.16300
H49         H  0.44292608  0.21106642  0.32628426     0.16300
H50         H  0.06589777  0.37540789  0.23967646     0.16400
H51         H  0.06475151  0.20298101  0.31579505     0.16300
C52         C  0.04054000  0.74106761  0.25603191     0.30200
C53         C  0.46098320  0.73756086  0.25737790     0.30200
C54         C  0.02176872  0.68817274  0.25326060    -0.06000
C55         C  0.02110609  0.75923827  0.29060170    -0.03400
C56         C  0.02024939  0.77050520  0.22691381    -0.06600
C57         C  0.48112648  0.68562957  0.25367842    -0.06000
C58         C  0.48087318  0.75767334  0.29127678    -0.06800
C59         C  0.48037534  0.76832013  0.22735209    -0.06700
C60         C  0.47150397  0.63459291  0.25607308    -0.32000
N61         N  0.00431705  0.60757580  0.25630386     0.14500
C62         C  0.03501419  0.63979959  0.25566764    -0.32000
H63         H  0.06479750  0.62863658  0.25721853     0.16400
C64         C  0.46941540  0.77633115  0.32386090    -0.31000
N65         N  0.00140940  0.78852995  0.34306096     0.13200
C66         C  0.03282381  0.77606590  0.32345143    -0.31000
C67         C  0.46802296  0.79599513  0.19867244    -0.31300
N68         N  0.99947242  0.81433763  0.18068029     0.13700
H69         H  0.43833673  0.80313364  0.19194568     0.16300
C70         C  0.03156310  0.79951021  0.19801074    -0.31300
H71         H  0.06094812  0.80857260  0.18984593     0.16300
H72         H  0.06223228  0.77979243  0.33263145     0.16300
H73         H  0.44320829  0.61738564  0.25943842     0.16400
H74         H  0.44000421  0.78328268  0.33194623     0.16300
C75         C  0.29026142  0.75871105  0.24636870     0.30200
C76         C  0.21086917  0.76291114  0.24397008     0.30200
C77         C  0.27283741  0.81252461  0.24757699    -0.06000
C78         C  0.27126310  0.73809034  0.21231577    -0.06800
C79         C  0.26771249  0.73116424  0.27594765    -0.06600
C80         C  0.23234479  0.81393826  0.24644661    -0.06000
C81         C  0.23111393  0.74090534  0.21088024    -0.06800
C82         C  0.22791434  0.73301971  0.27467355    -0.06700
C83         C  0.22219112  0.86322826  0.24173895    -0.32000
N84         N  0.25461022  0.89258496  0.24119778     0.14500
C85         C  0.28557756  0.86210930  0.24290327    -0.32000
H86         H  0.31496649  0.87548036  0.23887270     0.16400
C87         C  0.22030184  0.72252376  0.17819191    -0.31000
N88         N  0.25160081  0.70352248  0.16168268     0.13200
C89         C  0.28318428  0.71470751  0.18154765    -0.31000
C90         C  0.21355925  0.70655771  0.30364634    -0.31300
N91         N  0.24375834  0.68795268  0.32201957     0.13700
H92         H  0.18350737  0.70308535  0.31136767     0.16300
C93         C  0.27694619  0.70321296  0.30539583    -0.31300
H94         H  0.30574998  0.69441464  0.31409425     0.16300
H95         H  0.31235058  0.70421846  0.17491410     0.16300
H96         H  0.19325544  0.87686767  0.23835203     0.16400
H97         H  0.19176871  0.72303632  0.16686764     0.16300
C98         C  0.21059180  0.23773320  0.25056456     0.30200
C99         C  0.29012883  0.24040057  0.24848958     0.30200
C100        C  0.22996918  0.18586472  0.24848032    -0.06000
C101        C  0.22972204  0.26633179  0.21915264    -0.06800
C102        C  0.23122766  0.25959768  0.28335345    -0.06600
C103        C  0.27057093  0.18723658  0.24659650    -0.06000
C104        C  0.26980275  0.26671460  0.21772858    -0.06800
C105        C  0.27119865  0.26224883  0.28168254    -0.06700
C106        C  0.28178275  0.13815569  0.24209718    -0.32000
N107        N  0.25014576  0.10726520  0.24357783     0.14500
C108        C  0.21843980  0.13577860  0.24803919    -0.32000
H109        H  0.18934498  0.12090897  0.25146237     0.16400
C110        C  0.28083755  0.28921485  0.18606621    -0.31000
N111        N  0.24875394  0.30386049  0.16878858     0.13200
C112        C  0.21732944  0.29034567  0.18882298    -0.31000
C113        C  0.28410834  0.28359480  0.31281991    -0.31300
N114        N  0.25309935  0.29194218  0.33406278     0.13700
H115        H  0.31358841  0.29491839  0.31834822     0.16300
C116        C  0.22105643  0.27531906  0.31689629    -0.31300
H117        H  0.19230544  0.27588680  0.32827589     0.16300
H118        H  0.18769188  0.29724121  0.18168732     0.16300
H119        H  0.31058089  0.12509787  0.23694240     0.16400
H120        H  0.31013270  0.29578048  0.17672350     0.16300
C121        C  0.22864178  0.97248120  0.21917972    -0.26100
C122        C  0.25522447  0.94692271  0.24039578    -0.14200
C123        C  0.28000234  0.97505370  0.26280386     0.36400
C124        C  0.27799243  0.02777760  0.26309460    -0.25600
C125        C  0.25113606  0.05315697  0.24224127    -0.14800
C126        C  0.22637711  0.02526373  0.21983312     0.37500
N127        N  0.19947407  0.05068307  0.19750904    -0.89100
H128        H  0.20964672  0.95106560  0.20194999     0.18600
H129        H  0.29680452  0.04934566  0.28041815     0.18600
N130        N  0.30616476  0.94997985  0.28609213    -0.88100
H131        H  0.18336745  0.02479379  0.18259507     0.36000
H132        H  0.21544781  0.07280615  0.17936275     0.41100
H133        H  0.28957368  0.92899050  0.30444191     0.40700
H134        H  0.32235468  0.97607766  0.30075536     0.35600
C135        C  0.35764403  0.79107655  0.26258351    -0.26100
C136        C  0.33419825  0.75146416  0.25005467    -0.14200
C137        C  0.35250822  0.70474526  0.24382208     0.36400
C138        C  0.39295084  0.70227605  0.24506043    -0.25600
C139        C  0.41662621  0.74263806  0.25625032    -0.14800
C140        C  0.39800175  0.78892089  0.26355506     0.37500
N141        N  0.41827800  0.83545052  0.27128140    -0.89100
H142        H  0.34496882  0.82466188  0.27260271     0.18600
H143        H  0.40537631  0.66822627  0.23583668     0.18600
N144        N  0.33174715  0.65837743  0.23676079    -0.88100
H145        H  0.40973837  0.86210300  0.25253272     0.36000
H146        H  0.44792726  0.83349352  0.26770801     0.41100
H147        H  0.30210625  0.66147260  0.24003903     0.40700
H148        H  0.33968753  0.63227192  0.25612598     0.35600
C149        C  0.14643305  0.72196950  0.22790506    -0.26100
C150        C  0.16646720  0.76103189  0.24542727    -0.14200
C151        C  0.14479989  0.79186362  0.26842393     0.36400
C152        C  0.10434638  0.78617747  0.26989466    -0.25600
C153        C  0.08463842  0.74657940  0.25260529    -0.14800
C154        C  0.10607719  0.71733807  0.22858378     0.37500
N155        N  0.08709546  0.68395562  0.20403838    -0.89100
H156        H  0.16197871  0.69330197  0.21424235     0.18600
H157        H  0.08833803  0.81373059  0.28439995     0.18600
N158        N  0.16363846  0.82750961  0.29143762    -0.88100
H159        H  0.10717428  0.66511474  0.18842956     0.36000
H160        H  0.07113850  0.70584552  0.18657047     0.41100
H161        H  0.17991900  0.80737892  0.30970029     0.40700
H162        H  0.14348067  0.84735456  0.30629787     0.35600
C163        C  0.39339406  0.29838599  0.24351054    -0.26100
C164        C  0.41656750  0.25820166  0.25359889    -0.14200
C165        C  0.39775926  0.21109415  0.26080920     0.36400
C166        C  0.35729050  0.20722597  0.26076854    -0.25600
C167        C  0.33430767  0.24691512  0.24956297    -0.14800
C168        C  0.35288824  0.29431665  0.24332935     0.37500
N169        N  0.33081790  0.33864401  0.23698790    -0.89100
H170        H  0.40633395  0.33285506  0.23396715     0.18600
H171        H  0.34404777  0.17306031  0.27076849     0.18600
N172        N  0.41954565  0.16668341  0.26772388    -0.88100
H173        H  0.34888287  0.36985601  0.23174769     0.36000
H174        H  0.31572475  0.34679663  0.26029102     0.41100
H175        H  0.43377404  0.15698590  0.24429404     0.40700
H176        H  0.40134187  0.13605974  0.27420467     0.35600
C177        C  0.10261847  0.21762608  0.22780202    -0.26100
C178        C  0.08449568  0.25618107  0.24684440    -0.14200
C179        C  0.10806037  0.28602093  0.26915446     0.36400
C180        C  0.14823372  0.28079651  0.26854466    -0.25600
C181        C  0.16629765  0.24165545  0.25004328    -0.14800
C182        C  0.14287434  0.21237813  0.22729876     0.37500
N183        N  0.15963734  0.17900581  0.20211022    -0.89100
H184        H  0.08596852  0.18928583  0.21422659     0.18600
H185        H  0.16502711  0.30924211  0.28204077     0.18600
N186        N  0.09149034  0.32028846  0.29388667    -0.88100
H187        H  0.15241161  0.19143918  0.17664378     0.36000
H188        H  0.14691155  0.14332367  0.20574030     0.41100
H189        H  0.10412505  0.35588031  0.28955278     0.40700
H190        H  0.09892377  0.30878612  0.31951583     0.35600
C191        C  0.49262672  0.52920910  0.22385205    -0.26100
C192        C  0.00622157  0.55369395  0.25436224    -0.14200
C193        C  0.02156455  0.52488418  0.28237312     0.36400
C194        C  0.02250812  0.47233774  0.27954353    -0.25600
C195        C  0.00813514  0.44791266  0.24931458    -0.14800
C196        C  0.49341813  0.47675893  0.22111451     0.37500
N197        N  0.47932165  0.45350042  0.18940336    -0.89100
H198        H  0.48126799  0.55116531  0.20211641     0.18600
H199        H  0.03349574  0.45024280  0.30137545     0.18600
N200        N  0.03485866  0.54792340  0.31444073    -0.88100
H201        H  0.45627574  0.42923410  0.19622309     0.36000
H202        H  0.50143343  0.43212696  0.17858756     0.41100
H203        H  0.01234775  0.56874380  0.32510442     0.40700
H204        H  0.05783833  0.57256384  0.30819996     0.35600
C205        C  0.47494438  0.85168597  0.42936395    -0.26100
C206        C  0.00416558  0.88911030  0.43140849    -0.14200
C207        C  0.03367037  0.89076563  0.40536238     0.36400
C208        C  0.03266538  0.85621109  0.37737328    -0.25600
C209        C  0.00293484  0.81959122  0.37451951    -0.14800
C210        C  0.47435830  0.81637880  0.40151321     0.37500
N211        N  0.44506332  0.77734046  0.40067248    -0.89100
H212        H  0.45249594  0.85003697  0.44958589     0.18600
H213        H  0.05443334  0.85956314  0.35666008     0.18600
N214        N  0.06363729  0.92901285  0.40640447    -0.88100
H215        H  0.42636055  0.78014823  0.42248501     0.36000
H216        H  0.45882453  0.74295601  0.40328813     0.41100
H217        H  0.05070670  0.96364141  0.40217247     0.40700
H218        H  0.08339386  0.92454474  0.38557037     0.35600
C219        C  0.47953811  0.86267739  0.08852270    -0.26100
C220        C  0.00048955  0.90836477  0.08834667    -0.14200
C221        C  0.02129658  0.92261673  0.11910012     0.36400
C222        C  0.02025887  0.89134794  0.14919249    -0.25600
C223        C  0.99918822  0.84572759  0.14938986    -0.14800
C224        C  0.47925546  0.83089959  0.11835269     0.37500
N225        N  0.46028291  0.78273313  0.11564859    -0.89100
H226        H  0.46402729  0.85100219  0.06495166     0.18600
H227        H  0.03584926  0.90278630  0.17276476     0.18600
N228        N  0.04275894  0.96918425  0.12095753    -0.88100
H229        H  0.43727895  0.78069247  0.13368107     0.36000
H230        H  0.48005383  0.75503331  0.12207046     0.41100
H231        H  0.02424333  0.99858761  0.11516114     0.40700
H232        H  0.06488418  0.96898612  0.10193987     0.35600
C233        C  0.02429347  0.08975661  0.39270702    -0.26100
C234        C  0.99858488  0.09838009  0.42088007    -0.14200
C235        C  0.47579032  0.14169645  0.42011631     0.36400
C236        C  0.47895137  0.17499676  0.39084215    -0.25600
C237        C  0.00417015  0.16573787  0.36222396    -0.14800
C238        C  0.02691739  0.12243652  0.36335416     0.37500
N239        N  0.05163756  0.11026551  0.33413649    -0.89100
H240        H  0.04198832  0.05669156  0.39309461     0.18600
H241        H  0.46158094  0.20832297  0.39022921     0.18600
N242        N  0.45074107  0.15277913  0.44954419    -0.88100
H243        H  0.04304090  0.07498856  0.32456160     0.36000
H244        H  0.07979248  0.10759851  0.34368453     0.41100
H245        H  0.42832711  0.12583587  0.44986370     0.40700
H246        H  0.43780257  0.18750658  0.44570610     0.35600
C247        C  0.46597065  0.09935845  0.10403684    -0.26100
C248        C  0.99207320  0.10963927  0.07614669    -0.14200
C249        C  0.01604488  0.15315050  0.07753453     0.36400
C250        C  0.01305241  0.18549679  0.10687157    -0.25600
C251        C  0.98780516  0.17423467  0.13545224    -0.14800
C252        C  0.46416506  0.13018255  0.13382299     0.37500
N253        N  0.44026283  0.11334044  0.16296032    -0.89100
H254        H  0.44812125  0.06536846  0.10360279     0.18600
H255        H  0.03154624  0.21878108  0.10815771     0.18600
N256        N  0.04308470  0.16455184  0.04928291    -0.88100
H257        H  0.41769399  0.13815795  0.16644182     0.36000
H258        H  0.45694669  0.11187013  0.18596886     0.41100
H259        H  0.06488039  0.13808030  0.05049737     0.40700
H260        H  0.05668257  0.19946794  0.05345295     0.35600
C261        C  0.26730476  0.67203882  0.38220848    -0.26100
C262        C  0.24205932  0.65907950  0.35448820    -0.14200
C263        C  0.21799851  0.61571411  0.35821164     0.36400
C264        C  0.21968170  0.58683069  0.38924940    -0.25600
C265        C  0.24603321  0.59855195  0.41626353    -0.14800
C266        C  0.26984440  0.64200023  0.41296667     0.37500
N267        N  0.29552337  0.65635250  0.44115530    -0.89100
H268        H  0.28556274  0.70543793  0.37946962     0.18600
H269        H  0.20089089  0.55398334  0.39178311     0.18600
N270        N  0.19332868  0.59820498  0.33030428    -0.88100
H271        H  0.30913154  0.69094644  0.43535997     0.36000
H272        H  0.31741374  0.63001352  0.44216697     0.41100
H273        H  0.20964330  0.59534593  0.30693650     0.40700
H274        H  0.17134295  0.62376329  0.32646464     0.35600
C275        C  0.22466316  0.59753753  0.10035445    -0.26100
C276        C  0.25203698  0.60406523  0.07307110    -0.14200
C277        C  0.27969534  0.64378863  0.07519553     0.36400
C278        C  0.27839796  0.67699193  0.10421420    -0.25600
C279        C  0.25068491  0.67060110  0.13139815    -0.14800
C280        C  0.22412400  0.62932486  0.12963859     0.37500
N281        N  0.19783966  0.61650753  0.15803072    -0.89100
H282        H  0.20402915  0.56635468  0.09946412     0.18600
H283        H  0.29923129  0.70783271  0.10587232     0.18600
N284        N  0.30826957  0.65112676  0.04762759    -0.88100
H285        H  0.17635113  0.64321310  0.15947692     0.36000
H286        H  0.21301248  0.61533233  0.18193192     0.41100
H287        H  0.32754238  0.62157161  0.04939406     0.40700
H288        H  0.32460268  0.68396273  0.05211180     0.35600
C289        C  0.27549826  0.35484030  0.42123606    -0.26100
C290        C  0.24794927  0.39282348  0.42136686    -0.14200
C291        C  0.22168114  0.39585807  0.39293957     0.36400
C292        C  0.22434941  0.36249432  0.36475020    -0.25600
C293        C  0.25199782  0.32474767  0.36427221    -0.14800
C294        C  0.27732694  0.32022217  0.39335921     0.37500
N295        N  0.30381653  0.27987427  0.39616587    -0.89100
H296        H  0.29542606  0.35169697  0.44317137     0.18600
H297        H  0.20481258  0.36652377  0.34260557     0.18600
N298        N  0.19298671  0.43365013  0.39111267    -0.88100
H299        H  0.32444623  0.28328196  0.37592929     0.36000
H300        H  0.28845923  0.24590378  0.39320727     0.41100
H301        H  0.20683754  0.46873820  0.39294429     0.40700
H302        H  0.17394233  0.42886689  0.41259444     0.35600
C303        C  0.23084067  0.38172286  0.13914634    -0.26100
C304        C  0.24857714  0.33503975  0.13745569    -0.14200
C305        C  0.26671595  0.32049906  0.10541694     0.36400
C306        C  0.26775484  0.35358114  0.07622060    -0.25600
C307        C  0.25004997  0.40037553  0.07808149    -0.14800
C308        C  0.23106659  0.41441686  0.10973001     0.37500
N309        N  0.21327601  0.46259062  0.11230037    -0.89100
H310        H  0.21712409  0.39278842  0.16376979     0.18600
H311        H  0.28166921  0.34227600  0.05173119     0.18600
N312        N  0.28272100  0.27170107  0.10132515    -0.88100
H313        H  0.20291124  0.46842186  0.13808914     0.36000
H314        H  0.18905064  0.46196537  0.09591746     0.41100
H315        H  0.26132149  0.24473267  0.10770938     0.40700
H316        H  0.30558834  0.26787503  0.11894753     0.35600
O317        O  0.28181760  0.45006595  0.53278043    -0.71600
O318        O  0.27986022  0.54942224  0.95914554    -0.71800
O319        O  0.28233349  0.55110807  0.53062721    -0.71700
O320        O  0.28017298  0.44833569  0.96119954    -0.71700
O321        O  0.21749004  0.44636664  0.96331942    -0.71600
O322        O  0.21964472  0.54977636  0.53234952    -0.71600
O323        O  0.21715075  0.54639160  0.96077223    -0.71600
O324        O  0.21909827  0.44984282  0.53479465    -0.71800
V325        V  0.27988045  0.49969844  0.49594385     1.35200
V326        V  0.21961800  0.49812986  0.99776069     1.35200
C327        C  0.25051161  0.43427190  0.54693934     0.77700
C328        C  0.24794990  0.56406643  0.94706553     0.77700
C329        C  0.25141630  0.56744997  0.54371403     0.77600
C330        C  0.24848612  0.43040496  0.95002618     0.77500
O331        O  0.03063874  0.96047894  0.54391244    -0.71600
O332        O  0.02929992  0.04715940  0.96359823    -0.71800
O333        O  0.02681284  0.05970942  0.53451806    -0.71700
O334        O  0.03248832  0.94752039  0.97255319    -0.71700
O335        O  0.46994175  0.94508413  0.96897289    -0.71600
O336        O  0.46447250  0.04957086  0.53683810    -0.71600
O337        O  0.46660780  0.04641319  0.96525851    -0.71600
O338        O  0.46845829  0.94959369  0.54058928    -0.71800
V339        V  0.02861628  0.00349077  0.50358222     1.35200
V340        V  0.46851237  0.99775779  0.50282440     1.35200
C341        C  0.99984847  0.94064933  0.55621589     0.77700
C342        C  0.99790265  0.06274509  0.95130340     0.77700
C343        C  0.99463530  0.07229331  0.54739634     0.77600
C344        C  0.00215763  0.92835653  0.95916638     0.77500
C345        C  0.46094274  0.26334462  0.75261468     0.30200
C346        C  0.04024330  0.26063079  0.74708960     0.30200
C347        C  0.48230460  0.31537718  0.75050879    -0.06000
C348        C  0.48206190  0.23891629  0.78386407    -0.06800
C349        C  0.47734080  0.23687051  0.71994555    -0.06600
C350        C  0.02269623  0.31374910  0.74668536    -0.06000
C351        C  0.02192352  0.23681547  0.78074124    -0.06800
C352        C  0.01727480  0.23547775  0.71672729    -0.06700
C353        C  0.03633310  0.36290287  0.74413704    -0.32000
N354        N  0.00617518  0.39393831  0.74837074     0.14500
C355        C  0.47347067  0.36574246  0.75312058    -0.32000
H356        H  0.44591677  0.38168803  0.75954901     0.16400
C357        C  0.03498972  0.21150792  0.81027847    -0.31000
N358        N  0.00415517  0.19816356  0.83122325     0.13200
C359        C  0.47192626  0.21621577  0.81578129    -0.31000
C360        C  0.02471559  0.21638743  0.68328716    -0.31300
N361        N  0.99087285  0.20309375  0.66766565     0.13700
H362        H  0.05250131  0.21304794  0.67040704     0.16300
C363        C  0.46170141  0.21745209  0.68929447    -0.31300
H364        H  0.43134164  0.21548591  0.68296623     0.16300
H365        H  0.44292535  0.21106674  0.82628250     0.16300
H366        H  0.06589701  0.37540983  0.73967565     0.16400
H367        H  0.06475125  0.20298363  0.81579492     0.16300
C368        C  0.04054162  0.74106730  0.75603264     0.30200
C369        C  0.46098477  0.73756197  0.75737864     0.30200
C370        C  0.02176981  0.68817268  0.75326190    -0.06000
C371        C  0.02110780  0.75923892  0.79060226    -0.03400
C372        C  0.02025120  0.77050434  0.72691403    -0.06600
C373        C  0.48112749  0.68563034  0.75367950    -0.06000
C374        C  0.48087489  0.75767464  0.79127729    -0.06800
C375        C  0.48037705  0.76832007  0.72735253    -0.06700
C376        C  0.47150428  0.63459389  0.75607302    -0.32000
N377        N  0.00431710  0.60757614  0.75630386     0.14500
C378        C  0.03501459  0.63979923  0.75566842    -0.32000
H379        H  0.06479770  0.62863537  0.75721956     0.16400
C380        C  0.46941714  0.77633196  0.82386155    -0.31000
N381        N  0.00141120  0.78852999  0.84306179     0.13200
C382        C  0.03282561  0.77606607  0.82345215    -0.31000
C383        C  0.46802449  0.79599367  0.69867239    -0.31300
N384        N  0.99947388  0.81433437  0.68067936     0.13700
H385        H  0.43833822  0.80313280  0.69194615     0.16300
C386        C  0.03156471  0.79950745  0.69800993    -0.31300
H387        H  0.06094970  0.80856906  0.68984464     0.16300
H388        H  0.06223411  0.77979225  0.83263212     0.16300
H389        H  0.44320840  0.61738702  0.75943788     0.16400
H390        H  0.44000599  0.78328348  0.83194698     0.16300
C391        C  0.29026330  0.75871394  0.74636957     0.30200
C392        C  0.21087098  0.76291269  0.74397207     0.30200
C393        C  0.27283886  0.81252720  0.74757881    -0.06000
C394        C  0.27126464  0.73809369  0.71231661    -0.06800
C395        C  0.26771509  0.73116608  0.77594857    -0.06600
C396        C  0.23234615  0.81394023  0.74644895    -0.06000
C397        C  0.23111547  0.74090803  0.71088170    -0.06800
C398        C  0.22791691  0.73302070  0.77467500    -0.06700
C399        C  0.22219213  0.86322995  0.74173990    -0.32000
N400        N  0.25461097  0.89258711  0.74119788     0.14500
C401        C  0.28557853  0.86211187  0.74290367    -0.32000
H402        H  0.31496729  0.87548309  0.73887219     0.16400
C403        C  0.22030284  0.72252584  0.67819369    -0.31000
N404        N  0.25160163  0.70352480  0.66168392     0.13200
C405        C  0.28318541  0.71471071  0.68154834    -0.31000
C406        C  0.21356258  0.70655662  0.80364725    -0.31300
N407        N  0.24376219  0.68795121  0.82201963     0.13700
H408        H  0.18351082  0.70308280  0.81136873     0.16300
C409        C  0.27694957  0.70321344  0.80539594    -0.31300
H410        H  0.30575363  0.69441524  0.81409369     0.16300
H411        H  0.31235168  0.70422191  0.67491448     0.16300
H412        H  0.19325639  0.87686878  0.73835228     0.16400
H413        H  0.19176935  0.72303787  0.66687018     0.16300
C414        C  0.21059179  0.23773544  0.75056238     0.30200
C415        C  0.29012879  0.24040268  0.74848729     0.30200
C416        C  0.22996911  0.18586695  0.74847793    -0.06000
C417        C  0.22972200  0.26633422  0.71915055    -0.06800
C418        C  0.23122770  0.25959973  0.78335125    -0.06600
C419        C  0.27057081  0.18723879  0.74659402    -0.06000
C420        C  0.26980275  0.26671695  0.71772638    -0.06800
C421        C  0.27119866  0.26225089  0.78168029    -0.06700
C422        C  0.28178257  0.13815799  0.74209436    -0.32000
N423        N  0.25014562  0.10726748  0.74357506     0.14500
C424        C  0.21843970  0.13578082  0.74803671    -0.32000
H425        H  0.18934496  0.12091112  0.75146024     0.16400
C426        C  0.28083746  0.28921675  0.68606381    -0.31000
N427        N  0.24875372  0.30386231  0.66878635     0.13200
C428        C  0.21732927  0.29034793  0.68882090    -0.31000
C429        C  0.28410839  0.28359700  0.81281755    -0.31300
N430        N  0.25309945  0.29194422  0.83406056     0.13700
H431        H  0.31358845  0.29492080  0.81834552     0.16300
C432        C  0.22105650  0.27532103  0.81689409    -0.31300
H433        H  0.19230547  0.27588840  0.82827365     0.16300
H434        H  0.18769171  0.29724367  0.68168534     0.16300
H435        H  0.31058071  0.12510018  0.73693948     0.16400
H436        H  0.31013252  0.29578173  0.67672060     0.16300
C437        C  0.22864170  0.97248261  0.71917894    -0.26100
C438        C  0.25522487  0.94692488  0.74039502    -0.14200
C439        C  0.28000304  0.97505677  0.76280229     0.36400
C440        C  0.27799271  0.02778060  0.76309251    -0.25600
C441        C  0.25113607  0.05315924  0.74223906    -0.14800
C442        C  0.22637711  0.02526525  0.71983139     0.37500
N443        N  0.19947419  0.05068392  0.69750680    -0.89100
H444        H  0.20964637  0.95106640  0.70194984     0.18600
H445        H  0.29680484  0.04934922  0.78041569     0.18600
N446        N  0.30616620  0.94998389  0.78609037    -0.88100
H447        H  0.18336764  0.02479414  0.68259322     0.36000
H448        H  0.21544803  0.07280639  0.67936021     0.41100
H449        H  0.28957565  0.92899493  0.80444074     0.40700
H450        H  0.32235629  0.97608227  0.80075296     0.35600
C451        C  0.35764624  0.79107971  0.76258338    -0.26100
C452        C  0.33420019  0.75146725  0.75005496    -0.14200
C453        C  0.35250992  0.70474820  0.74382226     0.36400
C454        C  0.39295242  0.70227855  0.74506071    -0.25600
C455        C  0.41662795  0.74264006  0.75625093    -0.14800
C456        C  0.39800394  0.78892336  0.76355527     0.37500
N457        N  0.41828068  0.83545269  0.77128149    -0.89100
H458        H  0.34497129  0.82466557  0.77260197     0.18600
H459        H  0.40537767  0.66822888  0.73583662     0.18600
N460        N  0.33174876  0.65838053  0.73676071    -0.88100
H461        H  0.40974130  0.86210530  0.75253281     0.36000
H462        H  0.44792990  0.83349507  0.76770804     0.41100
H463        H  0.30210783  0.66147570  0.74003854     0.40700
H464        H  0.33968884  0.63227493  0.75612597     0.35600
C465        C  0.14643561  0.72196808  0.72790841    -0.26100
C466        C  0.16646899  0.76103223  0.74542943    -0.14200
C467        C  0.14480100  0.79186492  0.76842481     0.36400
C468        C  0.10434750  0.78617817  0.76989513    -0.25600
C469        C  0.08464016  0.74657884  0.75260656    -0.14800
C470        C  0.10607974  0.71733603  0.72858655     0.37500
N471        N  0.08709890  0.68395201  0.70404166    -0.89100
H472        H  0.16198202  0.69330034  0.71424656     0.18600
H473        H  0.08833861  0.81373176  0.78439950     0.18600
N474        N  0.16363885  0.82751259  0.79143765    -0.88100
H475        H  0.10717827  0.66511038  0.68843390     0.36000
H476        H  0.07114227  0.70584080  0.68657278     0.41100
H477        H  0.17991958  0.80738324  0.80970094     0.40700
H478        H  0.14348064  0.84735798  0.80629709     0.35600
C479        C  0.39339416  0.29838751  0.74350904    -0.26100
C480        C  0.41656736  0.25820291  0.75359743    -0.14200
C481        C  0.39775895  0.21109548  0.76080739     0.36400
C482        C  0.35729021  0.20722756  0.76076648    -0.25600
C483        C  0.33430759  0.24691694  0.74956088    -0.14800
C484        C  0.35288834  0.29431844  0.74332760     0.37500
N485        N  0.33081819  0.33864595  0.73698611    -0.89100
H486        H  0.40633426  0.33285650  0.73396570     0.18600
H487        H  0.34404733  0.17306189  0.77076627     0.18600
N488        N  0.41954516  0.16668453  0.76772187    -0.88100
H489        H  0.34888337  0.36985789  0.73174632     0.36000
H490        H  0.31572475  0.34679843  0.76028911     0.41100
H491        H  0.43377384  0.15698748  0.74429209     0.40700
H492        H  0.40134122  0.13606074  0.77420201     0.35600
C493        C  0.10261829  0.21762761  0.72780098    -0.26100
C494        C  0.08449565  0.25618285  0.74684325    -0.14200
C495        C  0.10806061  0.28602334  0.76915270     0.36400
C496        C  0.14823395  0.28079910  0.76854242    -0.25600
C497        C  0.16629768  0.24165770  0.75004125    -0.14800
C498        C  0.14287415  0.21237990  0.72729723     0.37500
N499        N  0.15963690  0.17900737  0.70210869    -0.89100
H500        H  0.08596825  0.18928700  0.71422596     0.18600
H501        H  0.16502755  0.30924488  0.78203818     0.18600
N502        N  0.09149097  0.32029141  0.79388472    -0.88100
H503        H  0.15241084  0.19144054  0.67664227     0.36000
H504        H  0.14691118  0.14332521  0.70573898     0.41100
H505        H  0.10412585  0.35588307  0.78955041     0.40700
H506        H  0.09892470  0.30878955  0.81951390     0.35600
C507        C  0.49262721  0.52920952  0.72385154    -0.26100
C508        C  0.00622108  0.55369439  0.75436230    -0.14200
C509        C  0.02156248  0.52488461  0.78237390     0.36400
C510        C  0.02250571  0.47233827  0.77954459    -0.25600
C511        C  0.00813414  0.44791340  0.74931507    -0.14800
C512        C  0.49341850  0.47675934  0.72111436     0.37500
N513        N  0.47932326  0.45350035  0.68940293    -0.89100
H514        H  0.48126962  0.55116563  0.70211533     0.18600
H515        H  0.03349223  0.45024329  0.80137698     0.18600
N516        N  0.03485556  0.54792388  0.81444184    -0.88100
H517        H  0.45627703  0.42923426  0.69622217     0.36000
H518        H  0.50143539  0.43212654  0.67858813     0.41100
H519        H  0.01234457  0.56874508  0.82510455     0.40700
H520        H  0.05783596  0.57256347  0.80820172     0.35600
C521        C  0.47494492  0.85168532  0.92936457    -0.26100
C522        C  0.00416570  0.88911038  0.93140923    -0.14200
C523        C  0.03367116  0.89076545  0.90536372     0.36400
C524        C  0.03266703  0.85621046  0.87737485    -0.25600
C525        C  0.00293654  0.81959057  0.87452066    -0.14800
C526        C  0.47435973  0.81637773  0.90151408     0.37500
N527        N  0.44506537  0.77733859  0.90067334    -0.89100
H528        H  0.45249612  0.85003622  0.94958619     0.18600
H529        H  0.05443538  0.85956241  0.85666202     0.18600
N530        N  0.06363776  0.92901307  0.90640606    -0.88100
H531        H  0.42636237  0.78014608  0.92248573     0.36000
H532        H  0.45882713  0.74295458  0.90328935     0.41100
H533        H  0.05070704  0.96364138  0.90217330     0.40700
H534        H  0.08339502  0.92454461  0.88557260     0.35600
C535        C  0.47953628  0.86267697  0.58852288    -0.26100
C536        C  0.00048975  0.90836247  0.58834625    -0.14200
C537        C  0.02129848  0.92261286  0.61909905     0.36400
C538        C  0.02026131  0.89134358  0.64919111    -0.25600
C539        C  0.99918920  0.84572441  0.64938900    -0.14800
C540        C  0.47925380  0.83089868  0.61835265     0.37500
N541        N  0.46027842  0.78273394  0.61564918    -0.89100
H542        H  0.46402371  0.85100331  0.56495243     0.18600
H543        H  0.03585322  0.90278072  0.67276280     0.18600
N544        N  0.04276221  0.96917935  0.62095615    -0.88100
H545        H  0.43727503  0.78069549  0.63368233     0.36000
H546        H  0.48004793  0.75503209  0.62207039     0.41100
H547        H  0.02424724  0.99858370  0.61516056     0.40700
H548        H  0.06488685  0.96898031  0.60193795     0.35600
C549        C  0.02429313  0.08975911  0.89270774    -0.26100
C550        C  0.99858174  0.09838020  0.92087908    -0.14200
C551        C  0.47578525  0.14169468  0.92011378     0.36400
C552        C  0.47894741  0.17499555  0.89083995    -0.25600
C553        C  0.00416903  0.16573915  0.86222337    -0.14800
C554        C  0.02691828  0.12243965  0.86335525     0.37500
N555        N  0.05164212  0.11027110  0.83413968    -0.89100
H556        H  0.04198956  0.05669553  0.89309647     0.18600
H557        H  0.46157564  0.20832052  0.89022604     0.18600
N558        N  0.45073283  0.15277515  0.94953980    -0.88100
H559        H  0.04304819  0.07499364  0.82456381     0.36000
H560        H  0.07979619  0.10760627  0.84369020     0.41100
H561        H  0.42832002  0.12583026  0.94985740     0.40700
H562        H  0.43779315  0.18750165  0.94570093     0.35600
C563        C  0.46597172  0.09936057  0.60403551    -0.26100
C564        C  0.99207575  0.10963942  0.57614623    -0.14200
C565        C  0.01604820  0.15314994  0.57753424     0.36400
C566        C  0.01305508  0.18549731  0.60687063    -0.25600
C567        C  0.98780643  0.17423693  0.63545063    -0.14800
C568        C  0.46416544  0.13018561  0.63382112     0.37500
N569        N  0.44026179  0.11334472  0.66295779    -0.89100
H570        H  0.44812158  0.06537128  0.60360130     0.18600
H571        H  0.03154955  0.21878100  0.60815682     0.18600
N572        N  0.04308946  0.16454949  0.54928345    -0.88100
H573        H  0.41769300  0.13816259  0.66643816     0.36000
H574        H  0.45694465  0.11187445  0.68596696     0.41100
H575        H  0.06488431  0.13807686  0.55049889     0.40700
H576        H  0.05668806  0.19946511  0.55345362     0.35600
C577        C  0.26730838  0.67203556  0.88220854    -0.26100
C578        C  0.24206396  0.65907610  0.85448751    -0.14200
C579        C  0.21800429  0.61570946  0.85820974     0.36400
C580        C  0.21968683  0.58682564  0.88924742    -0.25600
C581        C  0.24603664  0.59854768  0.91626277    -0.14800
C582        C  0.26984734  0.64199663  0.91296674     0.37500
N583        N  0.29552489  0.65634943  0.94115631    -0.89100
H584        H  0.28556571  0.70543534  0.87947047     0.18600
H585        H  0.20089675  0.55397749  0.89178020     0.18600
N586        N  0.19333612  0.59819980  0.83030131    -0.88100
H587        H  0.30913295  0.69094358  0.93536139     0.36000
H588        H  0.31741552  0.63001090  0.94216887     0.41100
H589        H  0.20965189  0.59534188  0.80693410     0.40700
H590        H  0.17135005  0.62375740  0.82646098     0.35600
C591        C  0.22466206  0.59754152  0.60035446    -0.26100
C592        C  0.25203652  0.60406803  0.57307152    -0.14200
C593        C  0.27969624  0.64378988  0.57519686     0.36400
C594        C  0.27839936  0.67699291  0.60421579    -0.25600
C595        C  0.25068551  0.67060339  0.63139925    -0.14800
C596        C  0.22412346  0.62932837  0.62963892     0.37500
N597        N  0.19783845  0.61651148  0.65803061    -0.89100
H598        H  0.20402703  0.56635986  0.59946365     0.18600
H599        H  0.29923366  0.70783250  0.60587441     0.18600
N600        N  0.30827138  0.65112682  0.54762956    -0.88100
H601        H  0.17635006  0.64321726  0.65947642     0.36000
H602        H  0.21301074  0.61533565  0.68193208     0.41100
H603        H  0.32754337  0.62157079  0.54939645     0.40700
H604        H  0.32460532  0.68396198  0.55211422     0.35600
C605        C  0.27549964  0.35483951  0.92123461    -0.26100
C606        C  0.24794874  0.39282017  0.92136766    -0.14200
C607        C  0.22167879  0.39585387  0.89294177     0.36400
C608        C  0.22434755  0.36249222  0.86475124    -0.25600
C609        C  0.25199800  0.32474813  0.86427087    -0.14800
C610        C  0.27732887  0.32022332  0.89335668     0.37500
N611        N  0.30382112  0.27987811  0.89616106    -0.89100
H612        H  0.29542890  0.35169689  0.94316886     0.18600
H613        H  0.20480936  0.36652132  0.84260760     0.18600
N614        N  0.19298177  0.43364283  0.89111751    -0.88100
H615        H  0.32445072  0.28329033  0.87592472     0.36000
H616        H  0.28846607  0.24590630  0.89320073     0.41100
H617        H  0.20683043  0.46873233  0.89294918     0.40700
H618        H  0.17393854  0.42885557  0.91259979     0.35600
C619        C  0.23084508  0.38172777  0.63914599    -0.26100
C620        C  0.24857688  0.33504174  0.63745368    -0.14200
C621        C  0.26671160  0.32049836  0.60541368     0.36400
C622        C  0.26775097  0.35358050  0.57621737    -0.25600
C623        C  0.25005089  0.40037788  0.57807998    -0.14800
C624        C  0.23107164  0.41442205  0.60972985     0.37500
N625        N  0.21328558  0.46259857  0.61230143    -0.89100
H626        H  0.21713172  0.39279521  0.66377049     0.18600
H627        H  0.28166199  0.34227334  0.55172683     0.18600
N628        N  0.28271246  0.27169811  0.60132108    -0.88100
H629        H  0.20292315  0.46843114  0.63809082     0.36000
H630        H  0.18905927  0.46197716  0.59591968     0.41100
H631        H  0.26131101  0.24473260  0.60770596     0.40700
H632        H  0.30557991  0.26786898  0.61894304     0.35600
O633        O  0.78181736  0.45006173  0.03278112    -0.71600
O634        O  0.77985836  0.54942575  0.45914465    -0.71800
O635        O  0.78233445  0.55110391  0.03062810    -0.71700
O636        O  0.78017284  0.44833924  0.46119903    -0.71700
O637        O  0.71748988  0.44637064  0.46331786    -0.71600
O638        O  0.71964561  0.54977511  0.03234843    -0.71600
O639        O  0.71714894  0.54639571  0.46077345    -0.71600
O640        O  0.71909815  0.44984178  0.03479605    -0.71800
V641        V  0.77988118  0.49969446  0.99594459     1.35200
V642        V  0.71961736  0.49813234  0.49776053     1.35200
C643        C  0.75051118  0.43426955  0.04694067     0.77700
C644        C  0.74794762  0.56407041  0.44706590     0.77700
C645        C  0.75141718  0.56744736  0.04371376     0.77600
C646        C  0.74848618  0.43040872  0.45002510     0.77500
O647        O  0.53063784  0.96048184  0.04391280    -0.71600
O648        O  0.52930283  0.04715863  0.46359902    -0.71800
O649        O  0.52681028  0.05971161  0.03451718    -0.71700
O650        O  0.53248949  0.94751917  0.47255272    -0.71700
O651        O  0.96994262  0.94508406  0.46897303    -0.71600
O652        O  0.96447002  0.04957066  0.03683838    -0.71600
O653        O  0.96661043  0.04641310  0.46525868    -0.71600
O654        O  0.96845754  0.94959384  0.04058916    -0.71800
V655        V  0.52861451  0.00349249  0.00358198     1.35200
V656        V  0.96851052  0.99775803  0.00282435     1.35200
C657        C  0.49984797  0.94065100  0.05621613     0.77700
C658        C  0.49790576  0.06274465  0.45130402     0.77700
C659        C  0.49463271  0.07229396  0.04739617     0.77600
C660        C  0.50215845  0.92835591  0.45916611     0.77500
C661        C  0.96094284  0.26334366  0.25261594     0.30200
C662        C  0.54024340  0.26062924  0.24709042     0.30200
C663        C  0.98230487  0.31537620  0.25050918    -0.06000
C664        C  0.98206218  0.23891600  0.28386548    -0.06800
C665        C  0.97734062  0.23686865  0.21994707    -0.06600
C666        C  0.52269654  0.31374771  0.24668579    -0.06000
C667        C  0.52192371  0.23681459  0.28074223    -0.06800
C668        C  0.51727467  0.23547566  0.21672848    -0.06700
C669        C  0.53633374  0.36290139  0.24413719    -0.32000
N670        N  0.50617596  0.39393736  0.24837014     0.14500
C671        C  0.97347124  0.36574173  0.25312018    -0.32000
H672        H  0.94591732  0.38168762  0.25954821     0.16400
C673        C  0.53499007  0.21150646  0.31027905    -0.31000
N674        N  0.50415577  0.19816239  0.33122408     0.13200
C675        C  0.97192677  0.21621541  0.31578276    -0.31000
C676        C  0.52471511  0.21638454  0.18328851    -0.31300
N677        N  0.49087221  0.20309076  0.16766737     0.13700
H678        H  0.55250069  0.21304484  0.17040809     0.16300
C679        C  0.96170086  0.21744964  0.18929636    -0.31300
H680        H  0.93134100  0.21548333  0.18296838     0.16300
H681        H  0.94292599  0.21106643  0.32628429     0.16300
H682        H  0.56589785  0.37540783  0.23967620     0.16400
H683        H  0.56475156  0.20298118  0.31579502     0.16300
C684        C  0.54054003  0.74106758  0.25603201     0.30200
C685        C  0.96098318  0.73756086  0.25737787     0.30200
C686        C  0.52176876  0.68817272  0.25326080    -0.06000
C687        C  0.52110611  0.75923840  0.29060174    -0.03400
C688        C  0.52024947  0.77050509  0.22691384    -0.06600
C689        C  0.98112644  0.68562958  0.25367824    -0.06000
C690        C  0.98087316  0.75767317  0.29127680    -0.06800
C691        C  0.98037526  0.76832029  0.22735209    -0.06700
C692        C  0.97150391  0.63459292  0.25607289    -0.32000
N693        N  0.50431711  0.60757578  0.25630410     0.14500
C694        C  0.53501424  0.63979958  0.25566790    -0.32000
H695        H  0.56479754  0.62863655  0.25721877     0.16400
C696        C  0.96941536  0.77633095  0.32386095    -0.31000
N697        N  0.50140944  0.78853004  0.34306099     0.13200
C698        C  0.53282386  0.77606597  0.32345151    -0.31000
C699        C  0.96802286  0.79599549  0.19867249    -0.31300
N700        N  0.49947250  0.81433729  0.18068022     0.13700
H701        H  0.93833666  0.80313409  0.19194574     0.16300
C702        C  0.53156318  0.79951006  0.19801075    -0.31300
H703        H  0.56094819  0.80857253  0.18984598     0.16300
H704        H  0.56223230  0.77979241  0.33263155     0.16300
H705        H  0.94320825  0.61738561  0.25943829     0.16400
H706        H  0.94000420  0.78328246  0.33194628     0.16300
C707        C  0.79026143  0.75871098  0.24636866     0.30200
C708        C  0.71086917  0.76291104  0.24397006     0.30200
C709        C  0.77283746  0.81252453  0.24757685    -0.06000
C710        C  0.77126308  0.73809019  0.21231577    -0.06800
C711        C  0.76771250  0.73116425  0.27594766    -0.06600
C712        C  0.73234482  0.81393815  0.24644649    -0.06000
C713        C  0.73111390  0.74090516  0.21088026    -0.06800
C714        C  0.72791434  0.73301969  0.27467357    -0.06700
C715        C  0.72219114  0.86322811  0.24173878    -0.32000
N716        N  0.75461022  0.89258485  0.24119765     0.14500
C717        C  0.78557758  0.86210924  0.24290311    -0.32000
H718        H  0.81496650  0.87548036  0.23887255     0.16400
C719        C  0.72030185  0.72252373  0.17819190    -0.31000
N720        N  0.75160085  0.70352262  0.16168260     0.13200
C721        C  0.78318431  0.71470756  0.18154759    -0.31000
C722        C  0.71355918  0.70655768  0.30364635    -0.31300
N723        N  0.74375828  0.68795263  0.32201957     0.13700
H724        H  0.68350731  0.70308523  0.31136763     0.16300
C725        C  0.77694615  0.70321296  0.30539585    -0.31300
H726        H  0.80574992  0.69441457  0.31409428     0.16300
H727        H  0.81235059  0.70421857  0.17491406     0.16300
H728        H  0.69325544  0.87686745  0.23835180     0.16400
H729        H  0.69176869  0.72303628  0.16686764     0.16300
C730        C  0.71059180  0.23773314  0.25056452     0.30200
C731        C  0.79012882  0.24040044  0.24848958     0.30200
C732        C  0.72996915  0.18586463  0.24848029    -0.06000
C733        C  0.72972209  0.26633178  0.21915265    -0.06800
C734        C  0.73122765  0.25959755  0.28335345    -0.06600
C735        C  0.77057089  0.18723649  0.24659648    -0.06000
C736        C  0.76980280  0.26671454  0.21772859    -0.06800
C737        C  0.77119865  0.26224870  0.28168256    -0.06700
C738        C  0.78178266  0.13815561  0.24209718    -0.32000
N739        N  0.75014568  0.10726511  0.24357785     0.14500
C740        C  0.71843974  0.13577851  0.24803919    -0.32000
H741        H  0.68934493  0.12090886  0.25146242     0.16400
C742        C  0.78083768  0.28921471  0.18606621    -0.31000
N743        N  0.74875409  0.30386036  0.16878855     0.13200
C744        C  0.71732955  0.29034562  0.18882295    -0.31000
C745        C  0.78410836  0.28359468  0.31281992    -0.31300
N746        N  0.75309936  0.29194198  0.33406281     0.13700
H747        H  0.81358841  0.29491830  0.31834821     0.16300
C748        C  0.72105642  0.27531892  0.31689628    -0.31300
H749        H  0.69230538  0.27588682  0.32827581     0.16300
H750        H  0.68769201  0.29724123  0.18168727     0.16300
H751        H  0.81058081  0.12509778  0.23694239     0.16400
H752        H  0.81013282  0.29578028  0.17672353     0.16300
C753        C  0.72864175  0.97248107  0.21917968    -0.26100
C754        C  0.75522441  0.94692258  0.24039575    -0.14200
C755        C  0.78000217  0.97505356  0.26280393     0.36400
C756        C  0.77799217  0.02777745  0.26309477    -0.25600
C757        C  0.75113595  0.05315687  0.24224131    -0.14800
C758        C  0.72637709  0.02526361  0.21983310     0.37500
N759        N  0.69947404  0.05068291  0.19750903    -0.89100
H760        H  0.70964672  0.95106546  0.20194995     0.18600
H761        H  0.79680418  0.04934551  0.28041843     0.18600
N762        N  0.80616461  0.94997970  0.28609216    -0.88100
H763        H  0.68336747  0.02479356  0.18259508     0.36000
H764        H  0.71544776  0.07280597  0.17936272     0.41100
H765        H  0.78957351  0.92899025  0.30444185     0.40700
H766        H  0.82235447  0.97607749  0.30075546     0.35600
C767        C  0.85764407  0.79107654  0.26258348    -0.26100
C768        C  0.83419829  0.75146413  0.25005464    -0.14200
C769        C  0.85250825  0.70474525  0.24382204     0.36400
C770        C  0.89295085  0.70227604  0.24506042    -0.25600
C771        C  0.91662621  0.74263806  0.25625030    -0.14800
C772        C  0.89800177  0.78892089  0.26355506     0.37500
N773        N  0.91827804  0.83545051  0.27128140    -0.89100
H774        H  0.84496886  0.82466191  0.27260265     0.18600
H775        H  0.90537632  0.66822629  0.23583663     0.18600
N776        N  0.83174720  0.65837745  0.23676064    -0.88100
H777        H  0.90973845  0.86210299  0.25253271     0.36000
H778        H  0.94792731  0.83349350  0.26770810     0.41100
H779        H  0.80210629  0.66147262  0.24003887     0.40700
H780        H  0.83968760  0.63227178  0.25612572     0.35600
C781        C  0.64643303  0.72196948  0.22790507    -0.26100
C782        C  0.66646718  0.76103180  0.24542728    -0.14200
C783        C  0.64479994  0.79186342  0.26842403     0.36400
C784        C  0.60434641  0.78617727  0.26989488    -0.25600
C785        C  0.58463845  0.74657928  0.25260544    -0.14800
C786        C  0.60607717  0.71733798  0.22858388     0.37500
N787        N  0.58709545  0.68395558  0.20403846    -0.89100
H788        H  0.66197870  0.69330202  0.21424231     0.18600
H789        H  0.58833810  0.81373040  0.28440018     0.18600
N790        N  0.66363861  0.82750934  0.29143766    -0.88100
H791        H  0.60717430  0.66511479  0.18842963     0.36000
H792        H  0.57113855  0.70584559  0.18657059     0.41100
H793        H  0.67991905  0.80737854  0.30970036     0.40700
H794        H  0.64348091  0.84735439  0.30629791     0.35600
C795        C  0.89339403  0.29838590  0.24351057    -0.26100
C796        C  0.91656746  0.25820159  0.25359898    -0.14200
C797        C  0.89775923  0.21109408  0.26080930     0.36400
C798        C  0.85729048  0.20722583  0.26076857    -0.25600
C799        C  0.83430764  0.24691497  0.24956297    -0.14800
C800        C  0.85288820  0.29431651  0.24332936     0.37500
N801        N  0.83081785  0.33864383  0.23698790    -0.89100
H802        H  0.90633394  0.33285499  0.23396721     0.18600
H803        H  0.84404778  0.17306013  0.27076849     0.18600
N804        N  0.91954561  0.16668333  0.26772397    -0.88100
H805        H  0.84888282  0.36985585  0.23174769     0.36000
H806        H  0.81572465  0.34679642  0.26029102     0.41100
H807        H  0.93377398  0.15698586  0.24429413     0.40700
H808        H  0.90134181  0.13605963  0.27420462     0.35600
C809        C  0.60261850  0.21762596  0.22780198    -0.26100
C810        C  0.58449572  0.25618104  0.24684429    -0.14200
C811        C  0.60806042  0.28602100  0.26915428     0.36400
C812        C  0.64823377  0.28079659  0.26854448    -0.25600
C813        C  0.66629767  0.24165542  0.25004320    -0.14800
C814        C  0.64287436  0.21237802  0.22729873     0.37500
N815        N  0.65963734  0.17900553  0.20211029    -0.89100
H816        H  0.58596858  0.18928558  0.21422664     0.18600
H817        H  0.66502719  0.30924221  0.28204055     0.18600
N818        N  0.59149040  0.32028855  0.29388646    -0.88100
H819        H  0.65241161  0.19143872  0.17664380     0.36000
H820        H  0.64691152  0.14332344  0.20574047     0.41100
H821        H  0.60412508  0.35588042  0.28955252     0.40700
H822        H  0.59892390  0.30878621  0.31951560     0.35600
C823        C  0.99262657  0.52920899  0.22385203    -0.26100
C824        C  0.50622166  0.55369393  0.25436235    -0.14200
C825        C  0.52156461  0.52488400  0.28237316     0.36400
C826        C  0.52250818  0.47233759  0.27954346    -0.25600
C827        C  0.50813522  0.44791265  0.24931446    -0.14800
C828        C  0.99341806  0.47675881  0.22111454     0.37500
N829        N  0.97932146  0.45350017  0.18940348    -0.89100
H830        H  0.98126771  0.55116513  0.20211640     0.18600
H831        H  0.53349582  0.45024258  0.30137535     0.18600
N832        N  0.53485864  0.54792301  0.31444088    -0.88100
H833        H  0.95627557  0.42923389  0.19622335     0.36000
H834        H  0.00143317  0.43212665  0.17858763     0.41100
H835        H  0.51234771  0.56874329  0.32510461     0.40700
H836        H  0.55783833  0.57256346  0.30820024     0.35600
C837        C  0.97494424  0.85168605  0.42936385    -0.26100
C838        C  0.50416568  0.88911029  0.43140854    -0.14200
C839        C  0.53367040  0.89076571  0.40536236     0.36400
C840        C  0.53266540  0.85621119  0.37737325    -0.25600
C841        C  0.50293484  0.81959129  0.37451953    -0.14800
C842        C  0.97435826  0.81637880  0.40151315     0.37500
N843        N  0.94506336  0.77734039  0.40067247    -0.89100
H844        H  0.95249573  0.85003714  0.44958572     0.18600
H845        H  0.55443328  0.85956329  0.35666002     0.18600
N846        N  0.56363728  0.92901298  0.40640443    -0.88100
H847        H  0.92636052  0.78014825  0.42248494     0.36000
H848        H  0.95882462  0.74295599  0.40328826     0.41100
H849        H  0.55070666  0.96364151  0.40217244     0.40700
H850        H  0.58339386  0.92454485  0.38557037     0.35600
C851        C  0.97953799  0.86267774  0.08852282    -0.26100
C852        C  0.50048967  0.90836445  0.08834661    -0.14200
C853        C  0.52129662  0.92261642  0.11910010     0.36400
C854        C  0.52025891  0.89134758  0.14919244    -0.25600
C855        C  0.49918824  0.84572724  0.14938979    -0.14800
C856        C  0.97925543  0.83089993  0.11835279     0.37500
N857        N  0.96028290  0.78273346  0.11564875    -0.89100
H858        H  0.96402706  0.85100258  0.06495181     0.18600
H859        H  0.53584927  0.90278593  0.17276473     0.18600
N860        N  0.54275892  0.96918402  0.12095759    -0.88100
H861        H  0.93727900  0.78069284  0.13368129     0.36000
H862        H  0.98005384  0.75503365  0.12207065     0.41100
H863        H  0.52424324  0.99858732  0.11516132     0.40700
H864        H  0.56488411  0.96898605  0.10193990     0.35600
C865        C  0.52429363  0.08975664  0.39270707    -0.26100
C866        C  0.49858500  0.09838007  0.42088009    -0.14200
C867        C  0.97579030  0.14169655  0.42011631     0.36400
C868        C  0.97895140  0.17499684  0.39084215    -0.25600
C869        C  0.50417023  0.16573792  0.36222399    -0.14800
C870        C  0.52691760  0.12243667  0.36335427     0.37500
N871        N  0.55163795  0.11026583  0.33413670    -0.89100
H872        H  0.54198846  0.05669160  0.39309467     0.18600
H873        H  0.96158108  0.20832316  0.39022921     0.18600
N874        N  0.95074115  0.15277937  0.44954422    -0.88100
H875        H  0.54304135  0.07498891  0.32456170     0.36000
H876        H  0.57979282  0.10759879  0.34368486     0.41100
H877        H  0.92832715  0.12583619  0.44986381     0.40700
H878        H  0.93780270  0.18750683  0.44570607     0.35600
C879        C  0.96597054  0.09935851  0.10403687    -0.26100
C880        C  0.49207323  0.10963921  0.07614661    -0.14200
C881        C  0.51604489  0.15315044  0.07753443     0.36400
C882        C  0.51305247  0.18549666  0.10687149    -0.25600
C883        C  0.48780530  0.17423451  0.13545219    -0.14800
C884        C  0.96416494  0.13018264  0.13382304     0.37500
N885        N  0.94026263  0.11334053  0.16296033    -0.89100
H886        H  0.94812112  0.06536859  0.10360278     0.18600
H887        H  0.53154635  0.21878093  0.10815762     0.18600
N888        N  0.54308477  0.16455176  0.04928285    -0.88100
H889        H  0.91769381  0.13815805  0.16644188     0.36000
H890        H  0.95694642  0.11187005  0.18596891     0.41100
H891        H  0.56488045  0.13808020  0.05049733     0.40700
H892        H  0.55668266  0.19946785  0.05345293     0.35600
C893        C  0.76730466  0.67203883  0.38220848    -0.26100
C894        C  0.74205930  0.65907938  0.35448817    -0.14200
C895        C  0.71799857  0.61571386  0.35821157     0.36400
C896        C  0.71968173  0.58683045  0.38924936    -0.25600
C897        C  0.74603315  0.59855186  0.41626353    -0.14800
C898        C  0.76984430  0.64200021  0.41296668     0.37500
N899        N  0.79552328  0.65635248  0.44115529    -0.89100
H900        H  0.78556260  0.70543794  0.37946963     0.18600
H901        H  0.70089097  0.55398307  0.39178308     0.18600
N902        N  0.69332874  0.59820468  0.33030420    -0.88100
H903        H  0.80913146  0.69094640  0.43535992     0.36000
H904        H  0.81741366  0.63001354  0.44216690     0.41100
H905        H  0.70964329  0.59534568  0.30693637     0.40700
H906        H  0.67134297  0.62376297  0.32646462     0.35600
C907        C  0.72466340  0.59753750  0.10035447    -0.26100
C908        C  0.75203704  0.60406543  0.07307100    -0.14200
C909        C  0.77969529  0.64378895  0.07519533     0.36400
C910        C  0.77839790  0.67699221  0.10421402    -0.25600
C911        C  0.75068496  0.67060122  0.13139808    -0.14800
C912        C  0.72412426  0.62932477  0.12963864     0.37500
N913        N  0.69784008  0.61650724  0.15803085    -0.89100
H914        H  0.70402952  0.56635451  0.09946418     0.18600
H915        H  0.79923112  0.70783315  0.10587204     0.18600
N916        N  0.80826937  0.65112722  0.04762725    -0.88100
H917        H  0.67635147  0.64321267  0.15947716     0.36000
H918        H  0.71301300  0.61533220  0.18193199     0.41100
H919        H  0.82754234  0.62157224  0.04939368     0.40700
H920        H  0.82460240  0.68396328  0.05211137     0.35600
C921        C  0.77549842  0.35484027  0.42123599    -0.26100
C922        C  0.74794932  0.39282328  0.42136689    -0.14200
C923        C  0.72168113  0.39585782  0.39293966     0.36400
C924        C  0.72434943  0.36249412  0.36475025    -0.25600
C925        C  0.75199784  0.32474748  0.36427223    -0.14800
C926        C  0.77732704  0.32022208  0.39335918     0.37500
N927        N  0.80381663  0.27987419  0.39616586    -0.89100
H928        H  0.79542634  0.35169704  0.44317121     0.18600
H929        H  0.70481254  0.36652351  0.34260565     0.18600
N930        N  0.69298650  0.43364962  0.39111294    -0.88100
H931        H  0.82444631  0.28328187  0.37592926     0.36000
H932        H  0.78845932  0.24590371  0.39320730     0.41100
H933        H  0.70683718  0.46873783  0.39294446     0.40700
H934        H  0.67394216  0.42886597  0.41259471     0.35600
C935        C  0.73084095  0.38172291  0.13914646    -0.26100
C936        C  0.74857730  0.33503970  0.13745571    -0.14200
C937        C  0.76671604  0.32049901  0.10541690     0.36400
C938        C  0.76775489  0.35358108  0.07622055    -0.25600
C939        C  0.75005015  0.40037555  0.07808153    -0.14800
C940        C  0.73106692  0.41441692  0.10973013     0.37500
N941        N  0.71327637  0.46259068  0.11230046    -0.89100
H942        H  0.71712444  0.39278848  0.16376990     0.18600
H943        H  0.78166911  0.34227588  0.05173110     0.18600
N944        N  0.78272105  0.27170101  0.10132509    -0.88100
H945        H  0.70291170  0.46842194  0.13808926     0.36000
H946        H  0.68905102  0.46196537  0.09591753     0.41100
H947        H  0.76132156  0.24473265  0.10770941     0.40700
H948        H  0.80558842  0.26787502  0.11894744     0.35600
O949        O  0.78181764  0.45006574  0.53278041    -0.71600
O950        O  0.77986027  0.54942220  0.95914551    -0.71800
O951        O  0.78233352  0.55110802  0.53062714    -0.71700
O952        O  0.78017304  0.44833566  0.96119960    -0.71700
O953        O  0.71749011  0.44636665  0.96331943    -0.71600
O954        O  0.71964476  0.54977607  0.53234963    -0.71600
O955        O  0.71715080  0.54639160  0.96077223    -0.71600
O956        O  0.71909830  0.44984253  0.53479456    -0.71800
V957        V  0.77988048  0.49969828  0.49594383     1.35200
V958        V  0.71961805  0.49812987  0.99776071     1.35200
C959        C  0.75051164  0.43427162  0.54693928     0.77700
C960        C  0.74794995  0.56406636  0.94706547     0.77700
C961        C  0.75141634  0.56744984  0.54371403     0.77600
C962        C  0.74848619  0.43040494  0.95002621     0.77500
O963        O  0.53063874  0.96047900  0.54391245    -0.71600
O964        O  0.52930004  0.04715937  0.96359824    -0.71800
O965        O  0.52681294  0.05970941  0.53451804    -0.71700
O966        O  0.53248848  0.94752030  0.97255317    -0.71700
O967        O  0.96994161  0.94508444  0.96897281    -0.71600
O968        O  0.96447241  0.04957081  0.53683812    -0.71600
O969        O  0.96660771  0.04641359  0.96525864    -0.71600
O970        O  0.96845828  0.94959361  0.54058927    -0.71800
V971        V  0.52861636  0.00349077  0.50358222     1.35200
V972        V  0.96851229  0.99775775  0.50282441     1.35200
C973        C  0.49984847  0.94064945  0.55621593     0.77700
C974        C  0.49790274  0.06274488  0.95130335     0.77700
C975        C  0.49463540  0.07229333  0.54739632     0.77600
C976        C  0.50215777  0.92835630  0.95916644     0.77500
C977        C  0.96094275  0.26334469  0.75261467     0.30200
C978        C  0.54024329  0.26063075  0.74708970     0.30200
C979        C  0.98230464  0.31537722  0.75050870    -0.06000
C980        C  0.98206197  0.23891649  0.78386407    -0.06800
C981        C  0.97734078  0.23687050  0.71994554    -0.06600
C982        C  0.52269619  0.31374905  0.74668548    -0.06000
C983        C  0.52192345  0.23681536  0.78074128    -0.06800
C984        C  0.51727483  0.23547779  0.71672732    -0.06700
C985        C  0.53633303  0.36290280  0.74413710    -0.32000
N986        N  0.50617513  0.39393828  0.74837079     0.14500
C987        C  0.97347073  0.36574246  0.75312054    -0.32000
H988        H  0.94591680  0.38168800  0.75954899     0.16400
C989        C  0.53498961  0.21150778  0.81027849    -0.31000
N990        N  0.50415506  0.19816329  0.83122323     0.13200
C991        C  0.97192637  0.21621610  0.81578133    -0.31000
C992        C  0.52471563  0.21638742  0.68328720    -0.31300
N993        N  0.49087291  0.20309371  0.66766567     0.13700
H994        H  0.55250137  0.21304788  0.67040712     0.16300
C995        C  0.96170136  0.21745211  0.68929448    -0.31300
H996        H  0.93134159  0.21548597  0.68296626     0.16300
H997        H  0.94292544  0.21106708  0.82628253     0.16300
H998        H  0.56589695  0.37540973  0.73967563     0.16400
H999        H  0.56475117  0.20298354  0.81579496     0.16300
C1000       C  0.54054162  0.74106734  0.75603265     0.30200
C1001       C  0.96098478  0.73756187  0.75737864     0.30200
C1002       C  0.52176980  0.68817269  0.75326201    -0.06000
C1003       C  0.52110780  0.75923913  0.79060222    -0.03400
C1004       C  0.52025120  0.77050425  0.72691396    -0.06600
C1005       C  0.98112752  0.68563027  0.75367943    -0.06000
C1006       C  0.98087489  0.75767439  0.79127734    -0.06800
C1007       C  0.98037706  0.76832009  0.72735258    -0.06700
C1008       C  0.97150433  0.63459383  0.75607308    -0.32000
N1009       N  0.50431704  0.60757616  0.75630377     0.14500
C1010       C  0.53501459  0.63979922  0.75566850    -0.32000
H1011       H  0.56479766  0.62863535  0.75721974     0.16400
C1012       C  0.96941712  0.77633175  0.82386159    -0.31000
N1013       N  0.50141121  0.78853003  0.84306179     0.13200
C1014       C  0.53282561  0.77606612  0.82345215    -0.31000
C1015       C  0.96802450  0.79599378  0.69867247    -0.31300
N1016       N  0.49947387  0.81433411  0.68067920     0.13700
H1017       H  0.93833822  0.80313279  0.69194621     0.16300
C1018       C  0.53156470  0.79950723  0.69800977    -0.31300
H1019       H  0.56094966  0.80856893  0.68984448     0.16300
H1020       H  0.56223410  0.77979212  0.83263218     0.16300
H1021       H  0.94320846  0.61738696  0.75943793     0.16400
H1022       H  0.94000595  0.78328325  0.83194697     0.16300
C1023       C  0.79026332  0.75871389  0.74636956     0.30200
C1024       C  0.71087100  0.76291267  0.74397197     0.30200
C1025       C  0.77283890  0.81252717  0.74757881    -0.06000
C1026       C  0.77126471  0.73809368  0.71231654    -0.06800
C1027       C  0.76771507  0.73116599  0.77594853    -0.06600
C1028       C  0.73234619  0.81394022  0.74644893    -0.06000
C1029       C  0.73111554  0.74090806  0.71088159    -0.06800
C1030       C  0.72791688  0.73302059  0.77467488    -0.06700
C1031       C  0.72219218  0.86322995  0.74173991    -0.32000
N1032       N  0.75461102  0.89258711  0.74119788     0.14500
C1033       C  0.78557858  0.86211187  0.74290367    -0.32000
H1034       H  0.81496735  0.87548309  0.73887219     0.16400
C1035       C  0.72030296  0.72252584  0.67819358    -0.31000
N1036       N  0.75160176  0.70352475  0.66168383     0.13200
C1037       C  0.78318552  0.71471066  0.68154829    -0.31000
C1038       C  0.71356250  0.70655644  0.80364708    -0.31300
N1039       N  0.74376209  0.68795105  0.82201954     0.13700
H1040       H  0.68351072  0.70308263  0.81136853     0.16300
C1041       C  0.77694952  0.70321333  0.80539593    -0.31300
H1042       H  0.80575356  0.69441526  0.81409378     0.16300
H1043       H  0.81235181  0.70422190  0.67491450     0.16300
H1044       H  0.69325643  0.87686878  0.73835232     0.16400
H1045       H  0.69176947  0.72303782  0.66687006     0.16300
C1046       C  0.71059182  0.23773546  0.75056239     0.30200
C1047       C  0.79012880  0.24040270  0.74848730     0.30200
C1048       C  0.72996914  0.18586697  0.74847800    -0.06000
C1049       C  0.72972203  0.26633421  0.71915055    -0.06800
C1050       C  0.73122770  0.25959985  0.78335123    -0.06600
C1051       C  0.77057084  0.18723881  0.74659404    -0.06000
C1052       C  0.76980278  0.26671688  0.71772637    -0.06800
C1053       C  0.77119865  0.26225099  0.78168027    -0.06700
C1054       C  0.78178260  0.13815799  0.74209443    -0.32000
N1055       N  0.75014565  0.10726747  0.74357528     0.14500
C1056       C  0.71843975  0.13578083  0.74803693    -0.32000
H1057       H  0.68934501  0.12091116  0.75146053     0.16400
C1058       C  0.78083752  0.28921654  0.68606376    -0.31000
N1059       N  0.74875379  0.30386220  0.66878634     0.13200
C1060       C  0.71732932  0.29034793  0.68882091    -0.31000
C1061       C  0.78410835  0.28359705  0.81281756    -0.31300
N1062       N  0.75309940  0.29194427  0.83406055     0.13700
H1063       H  0.81358842  0.29492074  0.81834563     0.16300
C1064       C  0.72105645  0.27532116  0.81689405    -0.31300
H1065       H  0.69230542  0.27588858  0.82827360     0.16300
H1066       H  0.68769177  0.29724372  0.68168535     0.16300
H1067       H  0.81058073  0.12510017  0.73693949     0.16400
H1068       H  0.81013258  0.29578138  0.67672051     0.16300
C1069       C  0.72864174  0.97248267  0.71917904    -0.26100
C1070       C  0.75522492  0.94692489  0.74039508    -0.14200
C1071       C  0.78000306  0.97505674  0.76280242     0.36400
C1072       C  0.77799270  0.02778056  0.76309272    -0.25600
C1073       C  0.75113605  0.05315923  0.74223932    -0.14800
C1074       C  0.72637708  0.02526528  0.71983163     0.37500
N1075       N  0.69947419  0.05068401  0.69750706    -0.89100
H1076       H  0.70964649  0.95106650  0.70194984     0.18600
H1077       H  0.79680485  0.04934916  0.78041591     0.18600
N1078       N  0.80616627  0.94998384  0.78609043    -0.88100
H1079       H  0.68336768  0.02479428  0.68259338     0.36000
H1080       H  0.71544808  0.07280651  0.67936054     0.41100
H1081       H  0.78957580  0.92899480  0.80444081     0.40700
H1082       H  0.82235639  0.97608218  0.80075302     0.35600
C1083       C  0.85764629  0.79107964  0.76258336    -0.26100
C1084       C  0.83420021  0.75146717  0.75005496    -0.14200
C1085       C  0.85250991  0.70474811  0.74382229     0.36400
C1086       C  0.89295239  0.70227848  0.74506075    -0.25600
C1087       C  0.91662797  0.74263999  0.75625093    -0.14800
C1088       C  0.89800398  0.78892329  0.76355526     0.37500
N1089       N  0.91828072  0.83545262  0.77128150    -0.89100
H1090       H  0.84497134  0.82466552  0.77260194     0.18600
H1091       H  0.90537762  0.66822875  0.73583665     0.18600
N1092       N  0.83174874  0.65838043  0.73676072    -0.88100
H1093       H  0.90974145  0.86210523  0.75253277     0.36000
H1094       H  0.94792995  0.83349498  0.76770819     0.41100
H1095       H  0.80210780  0.66147560  0.74003854     0.40700
H1096       H  0.83968876  0.63227476  0.75612595     0.35600
C1097       C  0.64643561  0.72196810  0.72790833    -0.26100
C1098       C  0.66646901  0.76103225  0.74542933    -0.14200
C1099       C  0.64480106  0.79186481  0.76842483     0.36400
C1100       C  0.60434759  0.78617802  0.76989520    -0.25600
C1101       C  0.58464017  0.74657882  0.75260656    -0.14800
C1102       C  0.60607973  0.71733604  0.72858652     0.37500
N1103       N  0.58709885  0.68395201  0.70404167    -0.89100
H1104       H  0.66198199  0.69330041  0.71424641     0.18600
H1105       H  0.58833876  0.81373159  0.78439969     0.18600
N1106       N  0.66363895  0.82751230  0.79143780    -0.88100
H1107       H  0.60717821  0.66511040  0.68843388     0.36000
H1108       H  0.57114216  0.70584077  0.68657283     0.41100
H1109       H  0.67991955  0.80738272  0.80970105     0.40700
H1110       H  0.64348079  0.84735760  0.80629735     0.35600
C1111       C  0.89339414  0.29838755  0.74350903    -0.26100
C1112       C  0.91656736  0.25820296  0.75359744    -0.14200
C1113       C  0.89775895  0.21109550  0.76080740     0.36400
C1114       C  0.85729019  0.20722758  0.76076651    -0.25600
C1115       C  0.83430759  0.24691695  0.74956090    -0.14800
C1116       C  0.85288831  0.29431844  0.74332759     0.37500
N1117       N  0.83081812  0.33864593  0.73698611    -0.89100
H1118       H  0.90633420  0.33285654  0.73396568     0.18600
H1119       H  0.84404730  0.17306195  0.77076631     0.18600
N1120       N  0.91954516  0.16668455  0.76772190    -0.88100
H1121       H  0.84888325  0.36985790  0.73174627     0.36000
H1122       H  0.81572471  0.34679841  0.76028913     0.41100
H1123       H  0.93377379  0.15698744  0.74429210     0.40700
H1124       H  0.90134122  0.13606078  0.77420211     0.35600
C1125       C  0.60261829  0.21762747  0.72780118    -0.26100
C1126       C  0.58449566  0.25618281  0.74684338    -0.14200
C1127       C  0.60806064  0.28602336  0.76915275     0.36400
C1128       C  0.64823400  0.28079917  0.76854244    -0.25600
C1129       C  0.66629771  0.24165773  0.75004131    -0.14800
C1130       C  0.64287416  0.21237983  0.72729737     0.37500
N1131       N  0.65963690  0.17900740  0.70210877    -0.89100
H1132       H  0.58596824  0.18928685  0.71422618     0.18600
H1133       H  0.66502760  0.30924503  0.78203812     0.18600
N1134       N  0.59149100  0.32029144  0.79388477    -0.88100
H1135       H  0.65241073  0.19144060  0.67664239     0.36000
H1136       H  0.64691130  0.14332520  0.70573909     0.41100
H1137       H  0.60412583  0.35588310  0.78955038     0.40700
H1138       H  0.59892480  0.30878965  0.81951394     0.35600
C1139       C  0.99262726  0.52920961  0.72385156    -0.26100
C1140       C  0.50622095  0.55369439  0.75436227    -0.14200
C1141       C  0.52156224  0.52488468  0.78237395     0.36400
C1142       C  0.52250544  0.47233833  0.77954470    -0.25600
C1143       C  0.50813410  0.44791339  0.74931513    -0.14800
C1144       C  0.99341847  0.47675942  0.72111436     0.37500
N1145       N  0.97932303  0.45350051  0.68940296    -0.89100
H1146       H  0.98126958  0.55116580  0.70211544     0.18600
H1147       H  0.53349182  0.45024339  0.80137719     0.18600
N1148       N  0.53485531  0.54792406  0.81444186    -0.88100
H1149       H  0.95627675  0.42923452  0.69622227     0.36000
H1150       H  0.00143508  0.43212667  0.67858801     0.41100
H1151       H  0.51234434  0.56874535  0.82510448     0.40700
H1152       H  0.55783569  0.57256364  0.80820169     0.35600
C1153       C  0.97494480  0.85168554  0.92936452    -0.26100
C1154       C  0.50416579  0.88911019  0.93140928    -0.14200
C1155       C  0.53367109  0.89076548  0.90536367     0.36400
C1156       C  0.53266688  0.85621062  0.87737475    -0.25600
C1157       C  0.50293654  0.81959058  0.87452066    -0.14800
C1158       C  0.97435964  0.81637789  0.90151404     0.37500
N1159       N  0.94506516  0.77733891  0.90067326    -0.89100
H1160       H  0.95249596  0.85003657  0.94958608     0.18600
H1161       H  0.55443512  0.85956271  0.85666181     0.18600
N1162       N  0.56363769  0.92901308  0.90640604    -0.88100
H1163       H  0.92636216  0.78014653  0.92248563     0.36000
H1164       H  0.95882672  0.74295479  0.90328940     0.41100
H1165       H  0.55070696  0.96364141  0.90217341     0.40700
H1166       H  0.58339487  0.92454476  0.88557247     0.35600
C1167       C  0.97953634  0.86267679  0.58852294    -0.26100
C1168       C  0.50048974  0.90836259  0.58834626    -0.14200
C1169       C  0.52129858  0.92261281  0.61909907     0.36400
C1170       C  0.52026137  0.89134342  0.64919109    -0.25600
C1171       C  0.49918919  0.84572429  0.64938890    -0.14800
C1172       C  0.97925384  0.83089864  0.61835279     0.37500
N1173       N  0.96027849  0.78273388  0.61564940    -0.89100
H1174       H  0.96402381  0.85100295  0.56495250     0.18600
H1175       H  0.53585331  0.90278038  0.67276279     0.18600
N1176       N  0.54276244  0.96917924  0.62095620    -0.88100
H1177       H  0.93727508  0.78069553  0.63368253     0.36000
H1178       H  0.98004801  0.75503208  0.62207069     0.41100
H1179       H  0.52424755  0.99858371  0.61516072     0.40700
H1180       H  0.56488694  0.96898025  0.60193787     0.35600
C1181       C  0.52429298  0.08975885  0.89270763    -0.26100
C1182       C  0.49858177  0.09838003  0.92087907    -0.14200
C1183       C  0.97578510  0.14169477  0.92011369     0.36400
C1184       C  0.97894732  0.17499569  0.89083990    -0.25600
C1185       C  0.50416897  0.16573890  0.86222334    -0.14800
C1186       C  0.52691809  0.12243932  0.86335511     0.37500
N1187       N  0.55164169  0.11027060  0.83413943    -0.89100
H1188       H  0.54198931  0.05669515  0.89309630     0.18600
H1189       H  0.96157552  0.20832060  0.89022596     0.18600
N1190       N  0.95073254  0.15277514  0.94953963    -0.88100
H1191       H  0.54304753  0.07499317  0.82456360     0.36000
H1192       H  0.57979584  0.10760567  0.84368976     0.41100
H1193       H  0.92831973  0.12583024  0.94985711     0.40700
H1194       H  0.93779284  0.18750163  0.94570073     0.35600
C1195       C  0.96597166  0.09936057  0.60403557    -0.26100
C1196       C  0.49207591  0.10963940  0.57614624    -0.14200
C1197       C  0.51604843  0.15314984  0.57753434     0.36400
C1198       C  0.51305523  0.18549723  0.60687071    -0.25600
C1199       C  0.48780648  0.17423692  0.63545063    -0.14800
C1200       C  0.96416542  0.13018560  0.63382118     0.37500
N1201       N  0.94026183  0.11334474  0.66295789    -0.89100
H1202       H  0.94812155  0.06537123  0.60360141     0.18600
H1203       H  0.53154976  0.21878088  0.60815698     0.18600
N1204       N  0.54308987  0.16454928  0.54928368    -0.88100
H1205       H  0.91769303  0.13816263  0.66643827     0.36000
H1206       H  0.95694476  0.11187444  0.68596703     0.41100
H1207       H  0.56488477  0.13807672  0.55049937     0.40700
H1208       H  0.55668846  0.19946491  0.55345382     0.35600
C1209       C  0.76730820  0.67203560  0.88220852    -0.26100
C1210       C  0.74206377  0.65907609  0.85448749    -0.14200
C1211       C  0.71800410  0.61570942  0.85820976     0.36400
C1212       C  0.71968679  0.58682549  0.88924738    -0.25600
C1213       C  0.74603666  0.59854754  0.91626269    -0.14800
C1214       C  0.76984724  0.64199661  0.91296670     0.37500
N1215       N  0.79552486  0.65634938  0.94115623    -0.89100
H1216       H  0.78556554  0.70543535  0.87947044     0.18600
H1217       H  0.70089671  0.55397734  0.89178016     0.18600
N1218       N  0.69333585  0.59819979  0.83030137    -0.88100
H1219       H  0.80913284  0.69094359  0.93536132     0.36000
H1220       H  0.81741553  0.63001090  0.94216867     0.41100
H1221       H  0.70965157  0.59534198  0.80693413     0.40700
H1222       H  0.67134974  0.62375736  0.82646111     0.35600
C1223       C  0.72466220  0.59754134  0.60035449    -0.26100
C1224       C  0.75203655  0.60406795  0.57307147    -0.14200
C1225       C  0.77969620  0.64378987  0.57519672     0.36400
C1226       C  0.77839935  0.67699287  0.60421566    -0.25600
C1227       C  0.75068558  0.67060330  0.63139919    -0.14800
C1228       C  0.72412358  0.62932819  0.62963894     0.37500
N1229       N  0.69783865  0.61651118  0.65803069    -0.89100
H1230       H  0.70402727  0.56635954  0.59946371     0.18600
H1231       H  0.79923362  0.70783248  0.60587420     0.18600
N1232       N  0.80827121  0.65112691  0.54762932    -0.88100
H1233       H  0.67635024  0.64321692  0.65947664     0.36000
H1234       H  0.71301096  0.61533544  0.68193214     0.41100
H1235       H  0.82754331  0.62157099  0.54939611     0.40700
H1236       H  0.82460505  0.68396218  0.55211386     0.35600
C1237       C  0.77549954  0.35483931  0.92123472    -0.26100
C1238       C  0.74794877  0.39282012  0.92136770    -0.14200
C1239       C  0.72167883  0.39585390  0.89294181     0.36400
C1240       C  0.72434757  0.36249230  0.86475124    -0.25600
C1241       C  0.75199796  0.32474815  0.86427088    -0.14800
C1242       C  0.77732874  0.32022313  0.89335676     0.37500
N1243       N  0.80382084  0.27987778  0.89616119    -0.89100
H1244       H  0.79542868  0.35169659  0.94316903     0.18600
H1245       H  0.70480938  0.36652147  0.84260762     0.18600
N1246       N  0.69298177  0.43364282  0.89111765    -0.88100
H1247       H  0.82445055  0.28328988  0.87592493     0.36000
H1248       H  0.78846566  0.24590605  0.89320084     0.41100
H1249       H  0.70683037  0.46873232  0.89294956     0.40700
H1250       H  0.67393855  0.42885532  0.91259992     0.35600
C1251       C  0.73084512  0.38172766  0.63914598    -0.26100
C1252       C  0.74857694  0.33504163  0.63745369    -0.14200
C1253       C  0.76671167  0.32049821  0.60541368     0.36400
C1254       C  0.76775104  0.35358030  0.57621736    -0.25600
C1255       C  0.75005092  0.40037767  0.57807993    -0.14800
C1256       C  0.73107169  0.41442190  0.60972982     0.37500
N1257       N  0.71328570  0.46259850  0.61230141    -0.89100
H1258       H  0.71713172  0.39279511  0.66377045     0.18600
H1259       H  0.78166205  0.34227313  0.55172682     0.18600
N1260       N  0.78271249  0.27169792  0.60132109    -0.88100
H1261       H  0.70292333  0.46843114  0.63809081     0.36000
H1262       H  0.68905932  0.46197709  0.59591975     0.41100
H1263       H  0.76131101  0.24473248  0.60770601     0.40700
H1264       H  0.80557997  0.26786873  0.61894300     0.35600
loop_ 
_geom_bond_atom_site_label_1 
_geom_bond_atom_site_label_2 
_geom_bond_distance 
_geom_bond_site_symmetry_2 
_ccdc_geom_bond_type 
O1            V9   1.911   1_554  S
O1           C11   1.267       .  A
O2          V325   1.909       .  S
O2           C12   1.267       .  A
O3            V9   1.898   1_554  S
O3           C13   1.263       .  A
O4          V325   1.897       .  S
O4           C14   1.263       .  A
O5           V10   1.898       .  S
O5           C14   1.264       .  A
O6          V326   1.899   1_554  S
O6           C13   1.266       .  A
O7           V10   1.891       .  S
O7           C12   1.261       .  A
O8          V326   1.889   1_554  S
O8           C11   1.261       .  A
V9          O318   1.909       .  S
V9          O320   1.897       .  S
V9          V326   2.088       .  T
V10         O322   1.899       .  S
V10         O324   1.889       .  S
V10         V325   2.088       .  T
C11         C307   1.474       .  S
C12         C265   1.476       .  S
C13         C276   1.478       .  S
C14         C290   1.475       .  S
O15          V23   1.897   1_565  S
O15          C25   1.263   1_455  A
O16         V339   1.894       .  S
O16          C26   1.263   1_455  A
O17          V23   1.903       .  S
O17          C27   1.265   1_455  A
O18         V339   1.905   1_565  S
O18          C28   1.267       .  A
O19         V340   1.901       .  S
O19         C660   1.264       .  A
O20          V24   1.894   1_545  S
O20         C659   1.263       .  A
O21         V340   1.913   1_545  S
O21         C658   1.268       .  A
O22          V24   1.907       .  S
O22         C657   1.267       .  A
V23         O332   1.894   1_554  S
V23         O334   1.905   1_544  S
V23         V656   2.085   1_445  T
V24         O335   1.901   1_554  S
V24         O337   1.913   1_564  S
V24         V655   2.085   1_565  T
C25         O654   1.267       .  A
C25         C220   1.479   1_655  S
C26         O653   1.268       .  A
C26         C234   1.481       .  S
C27         O652   1.263       .  A
C27         C248   1.477       .  S
C28         O651   1.264   1_455  A
C28         C206   1.484       .  S
C29          C31   1.557       .  S
C29          C33   1.532       .  S
C29          C32   1.538       .  S
C29         C164   1.540       .  S
C30          C34   1.551       .  S
C30          C36   1.545       .  S
C30          C35   1.538       .  S
C30         C178   1.540       .  S
C31          C39   1.385       .  A
C31         C666   1.407       .  A
C32          C43   1.380       .  A
C32         C667   1.387       .  A
C33          C47   1.377       .  A
C33         C668   1.389       .  A
C34          C37   1.383       .  A
C34         C663   1.407   1_455  A
C35          C41   1.380       .  A
C35         C664   1.387   1_455  A
C36          C44   1.384       .  A
C36         C665   1.389   1_455  A
C37          N38   1.355       .  A
C37          H50   1.081       .  S
N38         C671   1.355   1_455  A
N38         C195   1.437       .  S
C39         N670   1.355       .  A
C39          H40   1.080       .  S
C41          N42   1.362       .  A
C41          H51   1.082       .  S
N42         C675   1.358   1_455  A
N42         C237   1.446       .  S
C43         N674   1.358       .  A
C43          H49   1.082       .  S
C44          N45   1.356   1_455  A
C44          H46   1.080       .  S
N45         C679   1.356       .  A
N45         C251   1.442       .  S
C47         N677   1.356       .  A
C47          H48   1.080       .  S
C52          C54   1.542       .  S
C52          C56   1.527       .  S
C52          C55   1.545       .  S
C52         C153   1.536       .  S
C53          C57   1.568       .  S
C53          C59   1.533       .  S
C53          C58   1.547       .  S
C53         C139   1.546       .  S
C54          C62   1.379       .  A
C54         C689   1.408   1_455  A
C55          C66   1.378       .  A
C55         C690   1.393   1_455  A
C56          C70   1.379       .  A
C56         C691   1.381   1_455  A
C57          C60   1.393       .  A
C57         C686   1.408       .  A
C58          C64   1.384       .  A
C58         C687   1.393       .  A
C59          C67   1.379       .  A
C59         C688   1.381       .  A
C60         N693   1.358       .  A
C60          H73   1.079       .  S
N61          C62   1.351       .  A
N61         C692   1.358   1_455  A
N61         C192   1.439       .  S
C62          H63   1.082       .  S
C64         N697   1.362       .  A
C64          H74   1.081       .  S
N65          C66   1.358       .  A
N65         C696   1.362   1_455  A
N65         C209   1.449       .  S
C66          H72   1.081       .  S
C67         N700   1.358       .  A
C67          H69   1.082       .  S
N68          C70   1.358   1_655  A
N68         C699   1.358       .  A
N68         C223   1.439       .  S
C70          H71   1.083       .  S
C75          C77   1.567       .  S
C75          C79   1.528       .  S
C75          C78   1.543       .  S
C75         C136   1.546       .  S
C76          C80   1.537       .  S
C76          C82   1.528       .  S
C76          C81   1.549       .  S
C76         C150   1.538       .  S
C77          C85   1.392       .  A
C77          C80   1.405       .  A
C78          C89   1.382       .  A
C78          C81   1.396       .  A
C79          C93   1.374       .  A
C79          C82   1.382       .  A
C80          C83   1.376       .  A
C81          C87   1.378       .  A
C82          C90   1.377       .  A
C83          N84   1.354       .  A
C83          H96   1.082       .  S
N84          C85   1.361       .  A
N84         C122   1.446       .  S
C85          H86   1.080       .  S
C87          N88   1.355       .  A
C87          H97   1.080       .  S
N88          C89   1.358       .  A
N88         C279   1.442       .  S
C89          H95   1.082       .  S
C90          N91   1.359       .  A
C90          H92   1.080       .  S
N91          C93   1.357       .  A
N91         C262   1.439       .  S
C93          H94   1.083       .  S
C98         C100   1.550       .  S
C98         C102   1.541       .  S
C98         C101   1.539       .  S
C98         C181   1.540       .  S
C99         C103   1.557       .  S
C99         C105   1.530       .  S
C99         C104   1.533       .  S
C99         C167   1.537       .  S
C100        C108   1.383       .  A
C100        C103   1.407       .  A
C101        C112   1.380       .  A
C101        C104   1.389       .  A
C102        C116   1.378       .  A
C102        C105   1.386       .  A
C103        C106   1.382       .  A
C104        C110   1.377       .  A
C105        C113   1.378       .  A
C106        N107   1.356       .  A
C106        H119   1.080       .  S
N107        C108   1.359       .  A
N107        C125   1.442       .  S
C108        H109   1.081       .  S
C110        N111   1.355       .  A
C110        H120   1.082       .  S
N111        C112   1.360       .  A
N111        C304   1.437       .  S
C112        H118   1.082       .  S
C113        N114   1.357       .  A
C113        H115   1.080       .  S
N114        C116   1.356       .  A
N114        C293   1.438       .  S
C116        H117   1.081       .  S
C121        C122   1.407       .  A
C121        C126   1.409   1_565  A
C121        H128   1.083       .  S
C122        C123   1.414       .  A
C123        C124   1.406   1_565  A
C123        N130   1.437       .  S
C124        C125   1.403       .  A
C124        H129   1.083       .  S
C125        C126   1.410       .  A
C126        N127   1.437       .  S
N127        H131   1.046       .  S
N127        H132   1.046       .  S
N130        H133   1.046       .  S
N130        H134   1.046       .  S
C135        C136   1.402       .  A
C135        C140   1.401       .  A
C135        H142   1.074       .  S
C136        C137   1.428       .  A
C137        C138   1.405       .  A
C137        N144   1.441       .  S
C138        C139   1.405       .  A
C138        H143   1.070       .  S
C139        C140   1.430       .  A
C140        N141   1.442       .  S
N141        H145   1.046       .  S
N141        H146   1.037       .  S
N144        H147   1.038       .  S
N144        H148   1.046       .  S
C149        C150   1.407       .  A
C149        C154   1.401       .  A
C149        H156   1.075       .  S
C150        C151   1.418       .  A
C151        C152   1.407       .  A
C151        N158   1.438       .  S
C152        C153   1.408       .  A
C152        H157   1.078       .  S
C153        C154   1.414       .  A
C154        N155   1.438       .  S
N155        H159   1.046       .  S
N155        H160   1.045       .  S
N158        H161   1.045       .  S
N158        H162   1.046       .  S
C163        C164   1.403       .  A
C163        C168   1.405       .  A
C163        H170   1.071       .  S
C164        C165   1.423       .  A
C165        C166   1.403       .  A
C165        N172   1.440       .  S
C166        C167   1.401       .  A
C166        H171   1.074       .  S
C167        C168   1.421       .  A
C168        N169   1.439       .  S
N169        H173   1.045       .  S
N169        H174   1.044       .  S
N172        H175   1.043       .  S
N172        H176   1.046       .  S
C177        C178   1.411       .  A
C177        C182   1.405       .  A
C177        H184   1.073       .  S
C178        C179   1.411       .  A
C179        C180   1.402       .  A
C179        N186   1.433       .  S
C180        C181   1.412       .  A
C180        H185   1.077       .  S
C181        C182   1.410       .  A
C182        N183   1.432       .  S
N183        H187   1.046       .  S
N183        H188   1.046       .  S
N186        H189   1.046       .  S
N186        H190   1.046       .  S
C191        C196   1.401       .  A
C191        C824   1.403       .  A
C191        H198   1.083       .  S
C192        C193   1.413       .  A
C192        C823   1.403   1_455  A
C193        C194   1.404       .  A
C193        N200   1.431       .  S
C194        C195   1.403       .  A
C194        H199   1.083       .  S
C195        C828   1.411   1_455  A
C196        C827   1.411       .  A
C196        N197   1.432       .  S
N197        H201   1.045       .  S
N197        H202   1.046       .  S
N200        H203   1.046       .  S
N200        H204   1.044       .  S
C205        C210   1.412       .  A
C205        C838   1.407       .  A
C205        H212   1.084       .  S
C206        C207   1.410       .  A
C206        C837   1.407   1_455  A
C207        C208   1.403       .  A
C207        N214   1.438       .  S
C208        C209   1.407       .  A
C208        H213   1.082       .  S
C209        C842   1.414   1_455  A
C210        C841   1.414       .  A
C210        N211   1.437       .  S
N211        H215   1.046       .  S
N211        H216   1.046       .  S
N214        H217   1.045       .  S
N214        H218   1.046       .  S
C219        C224   1.401       .  A
C219        C852   1.402       .  A
C219        H226   1.084       .  S
C220        C221   1.417       .  A
C220        C851   1.402   1_455  A
C221        C222   1.400       .  A
C221        N228   1.433       .  S
C222        C223   1.402   1_455  A
C222        H227   1.084       .  S
C223        C856   1.415       .  A
C224        C855   1.415       .  A
C224        N225   1.432       .  S
N225        H229   1.043       .  S
N225        H230   1.046       .  S
N228        H231   1.046       .  S
N228        H232   1.045       .  S
C233        C234   1.402   1_455  A
C233        C238   1.402       .  A
C233        H240   1.084       .  S
C234        C867   1.412       .  A
C235        C236   1.411       .  A
C235        C866   1.412       .  A
C235        N242   1.438       .  S
C236        C869   1.408       .  A
C236        H241   1.083       .  S
C237        C238   1.411       .  A
C237        C868   1.408   1_455  A
C238        N239   1.431       .  S
N239        H243   1.046       .  S
N239        H244   1.046       .  S
N242        H245   1.045       .  S
N242        H246   1.046       .  S
C247        C252   1.395       .  A
C247        C880   1.401       .  A
C247        H254   1.084       .  S
C248        C249   1.411   1_655  A
C248        C879   1.401       .  A
C249        C250   1.409       .  A
C249        N256   1.438       .  S
C250        C251   1.407   1_455  A
C250        H255   1.083       .  S
C251        C884   1.417       .  A
C252        C883   1.417       .  A
C252        N253   1.432       .  S
N253        H257   1.043       .  S
N253        H258   1.045       .  S
N256        H259   1.045       .  S
N256        H260   1.046       .  S
C261        C262   1.406       .  A
C261        C266   1.407       .  A
C261        H268   1.083       .  S
C262        C263   1.414       .  A
C263        C264   1.396       .  A
C263        N270   1.432       .  S
C264        C265   1.403       .  A
C264        H269   1.081       .  S
C265        C266   1.409       .  A
C266        N267   1.437       .  S
N267        H271   1.046       .  S
N267        H272   1.045       .  S
N270        H273   1.046       .  S
N270        H274   1.043       .  S
C275        C276   1.399       .  A
C275        C280   1.394       .  A
C275        H282   1.084       .  S
C276        C277   1.414       .  A
C277        C278   1.410       .  A
C277        N284   1.438       .  S
C278        C279   1.404       .  A
C278        H283   1.083       .  S
C279        C280   1.419       .  A
C280        N281   1.433       .  S
N281        H285   1.042       .  S
N281        H286   1.046       .  S
N284        H287   1.045       .  S
N284        H288   1.046       .  S
C289        C290   1.405       .  A
C289        C294   1.402       .  A
C289        H296   1.084       .  S
C290        C291   1.413       .  A
C291        C292   1.391       .  A
C291        N298   1.431       .  S
C292        C293   1.403       .  A
C292        H297   1.084       .  S
C293        C294   1.414       .  A
C294        N295   1.432       .  S
N295        H299   1.042       .  S
N295        H300   1.046       .  S
N298        H301   1.043       .  S
N298        H302   1.045       .  S
C303        C304   1.400       .  A
C303        C308   1.403       .  A
C303        H310   1.083       .  S
C304        C305   1.415       .  A
C305        C306   1.403       .  A
C305        N312   1.432       .  S
C306        C307   1.402       .  A
C306        H311   1.084       .  S
C307        C308   1.412       .  A
C308        N309   1.438       .  S
N309        H313   1.046       .  S
N309        H314   1.045       .  S
N312        H315   1.046       .  S
N312        H316   1.043       .  S
O317        V325   1.911       .  S
O317        C327   1.267       .  A
O318        C328   1.267       .  A
O319        V325   1.898       .  S
O319        C329   1.263       .  A
O320        C330   1.263       .  A
O321        V326   1.898       .  S
O321        C330   1.264       .  A
O322        C329   1.266       .  A
O323        V326   1.891       .  S
O323        C328   1.261       .  A
O324        C327   1.261       .  A
C327        C623   1.474       .  S
C328        C581   1.476       .  S
C329        C592   1.478       .  S
C330        C606   1.475       .  S
O331        V339   1.897   1_565  S
O331        C341   1.263   1_455  A
O332        C342   1.263   1_455  A
O333        V339   1.903       .  S
O333        C343   1.265   1_455  A
O334        C344   1.267       .  A
O335        C976   1.264       .  A
O336        V340   1.894   1_545  S
O336        C975   1.263       .  A
O337        C974   1.268       .  A
O338        V340   1.907       .  S
O338        C973   1.267       .  A
V339        V972   2.085   1_445  T
V340        V971   2.085   1_565  T
C341        O970   1.267       .  A
C341        C536   1.479   1_655  S
C342        O969   1.268       .  A
C342        C550   1.481       .  S
C343        O968   1.263       .  A
C343        C564   1.477       .  S
C344        O967   1.264   1_455  A
C344        C522   1.484       .  S
C345        C347   1.557       .  S
C345        C349   1.532       .  S
C345        C348   1.538       .  S
C345        C480   1.540       .  S
C346        C350   1.551       .  S
C346        C352   1.545       .  S
C346        C351   1.538       .  S
C346        C494   1.540       .  S
C347        C355   1.385       .  A
C347        C982   1.407       .  A
C348        C359   1.380       .  A
C348        C983   1.387       .  A
C349        C363   1.377       .  A
C349        C984   1.389       .  A
C350        C979   1.407   1_455  A
C350        C353   1.383       .  A
C351        C980   1.387   1_455  A
C351        C357   1.380       .  A
C352        C981   1.389   1_455  A
C352        C360   1.384       .  A
C353        N354   1.355       .  A
C353        H366   1.081       .  S
N354        C987   1.355   1_455  A
N354        C511   1.437       .  S
C355        N986   1.355       .  A
C355        H356   1.080       .  S
C357        N358   1.362       .  A
C357        H367   1.082       .  S
N358        C991   1.358   1_455  A
N358        C553   1.446       .  S
C359        N990   1.358       .  A
C359        H365   1.082       .  S
C360        N361   1.356   1_455  A
C360        H362   1.080       .  S
N361        C995   1.356       .  A
N361        C567   1.442       .  S
C363        N993   1.356       .  A
C363        H364   1.080       .  S
C368        C370   1.542       .  S
C368        C372   1.527       .  S
C368        C371   1.545       .  S
C368        C469   1.536       .  S
C369        C373   1.568       .  S
C369        C375   1.533       .  S
C369        C374   1.547       .  S
C369        C455   1.546       .  S
C370        C378   1.379       .  A
C370       C1005   1.408   1_455  A
C371        C382   1.378       .  A
C371       C1006   1.393   1_455  A
C372        C386   1.379       .  A
C372       C1007   1.381   1_455  A
C373       C1002   1.408       .  A
C373        C376   1.393       .  A
C374       C1003   1.393       .  A
C374        C380   1.384       .  A
C375       C1004   1.381       .  A
C375        C383   1.379       .  A
C376       N1009   1.358       .  A
C376        H389   1.079       .  S
N377       C1008   1.358   1_455  A
N377        C378   1.351       .  A
N377        C508   1.439       .  S
C378        H379   1.082       .  S
C380       N1013   1.362       .  A
C380        H390   1.081       .  S
N381       C1012   1.362   1_455  A
N381        C382   1.358       .  A
N381        C525   1.449       .  S
C382        H388   1.081       .  S
C383       N1016   1.358       .  A
C383        H385   1.082       .  S
N384       C1015   1.358       .  A
N384        C386   1.358   1_655  A
N384        C539   1.439       .  S
C386        H387   1.083       .  S
C391        C393   1.567       .  S
C391        C395   1.528       .  S
C391        C394   1.543       .  S
C391        C452   1.546       .  S
C392        C396   1.537       .  S
C392        C398   1.528       .  S
C392        C397   1.549       .  S
C392        C466   1.538       .  S
C393        C401   1.392       .  A
C393        C396   1.405       .  A
C394        C405   1.382       .  A
C394        C397   1.396       .  A
C395        C409   1.374       .  A
C395        C398   1.382       .  A
C396        C399   1.376       .  A
C397        C403   1.378       .  A
C398        C406   1.377       .  A
C399        N400   1.354       .  A
C399        H412   1.082       .  S
N400        C401   1.361       .  A
N400        C438   1.446       .  S
C401        H402   1.080       .  S
C403        N404   1.355       .  A
C403        H413   1.080       .  S
N404        C405   1.358       .  A
N404        C595   1.442       .  S
C405        H411   1.082       .  S
C406        N407   1.359       .  A
C406        H408   1.080       .  S
N407        C409   1.357       .  A
N407        C578   1.439       .  S
C409        H410   1.083       .  S
C414        C416   1.550       .  S
C414        C418   1.541       .  S
C414        C417   1.539       .  S
C414        C497   1.540       .  S
C415        C419   1.557       .  S
C415        C421   1.530       .  S
C415        C420   1.533       .  S
C415        C483   1.537       .  S
C416        C424   1.383       .  A
C416        C419   1.407       .  A
C417        C428   1.380       .  A
C417        C420   1.389       .  A
C418        C432   1.378       .  A
C418        C421   1.386       .  A
C419        C422   1.382       .  A
C420        C426   1.377       .  A
C421        C429   1.378       .  A
C422        N423   1.356       .  A
C422        H435   1.080       .  S
N423        C424   1.359       .  A
N423        C441   1.442       .  S
C424        H425   1.081       .  S
C426        N427   1.355       .  A
C426        H436   1.082       .  S
N427        C428   1.360       .  A
N427        C620   1.437       .  S
C428        H434   1.082       .  S
C429        N430   1.357       .  A
C429        H431   1.080       .  S
N430        C432   1.356       .  A
N430        C609   1.438       .  S
C432        H433   1.081       .  S
C437        C438   1.407       .  A
C437        C442   1.409   1_565  A
C437        H444   1.083       .  S
C438        C439   1.414       .  A
C439        C440   1.406   1_565  A
C439        N446   1.437       .  S
C440        C441   1.403       .  A
C440        H445   1.083       .  S
C441        C442   1.410       .  A
C442        N443   1.437       .  S
N443        H447   1.046       .  S
N443        H448   1.046       .  S
N446        H449   1.046       .  S
N446        H450   1.046       .  S
C451        C452   1.402       .  A
C451        C456   1.401       .  A
C451        H458   1.074       .  S
C452        C453   1.428       .  A
C453        C454   1.405       .  A
C453        N460   1.441       .  S
C454        C455   1.405       .  A
C454        H459   1.070       .  S
C455        C456   1.430       .  A
C456        N457   1.442       .  S
N457        H461   1.046       .  S
N457        H462   1.037       .  S
N460        H463   1.038       .  S
N460        H464   1.046       .  S
C465        C466   1.407       .  A
C465        C470   1.401       .  A
C465        H472   1.075       .  S
C466        C467   1.418       .  A
C467        C468   1.407       .  A
C467        N474   1.438       .  S
C468        C469   1.408       .  A
C468        H473   1.078       .  S
C469        C470   1.414       .  A
C470        N471   1.438       .  S
N471        H475   1.046       .  S
N471        H476   1.045       .  S
N474        H477   1.045       .  S
N474        H478   1.046       .  S
C479        C480   1.403       .  A
C479        C484   1.405       .  A
C479        H486   1.071       .  S
C480        C481   1.423       .  A
C481        C482   1.403       .  A
C481        N488   1.440       .  S
C482        C483   1.401       .  A
C482        H487   1.074       .  S
C483        C484   1.421       .  A
C484        N485   1.439       .  S
N485        H489   1.045       .  S
N485        H490   1.044       .  S
N488        H491   1.043       .  S
N488        H492   1.046       .  S
C493        C494   1.411       .  A
C493        C498   1.405       .  A
C493        H500   1.073       .  S
C494        C495   1.411       .  A
C495        C496   1.402       .  A
C495        N502   1.433       .  S
C496        C497   1.412       .  A
C496        H501   1.077       .  S
C497        C498   1.410       .  A
C498        N499   1.432       .  S
N499        H503   1.046       .  S
N499        H504   1.046       .  S
N502        H505   1.046       .  S
N502        H506   1.046       .  S
C507       C1140   1.403       .  A
C507        C512   1.401       .  A
C507        H514   1.083       .  S
C508       C1139   1.403   1_455  A
C508        C509   1.413       .  A
C509        C510   1.404       .  A
C509        N516   1.431       .  S
C510        C511   1.403       .  A
C510        H515   1.083       .  S
C511       C1144   1.411   1_455  A
C512       C1143   1.411       .  A
C512        N513   1.432       .  S
N513        H517   1.045       .  S
N513        H518   1.046       .  S
N516        H519   1.046       .  S
N516        H520   1.044       .  S
C521       C1154   1.407       .  A
C521        C526   1.412       .  A
C521        H528   1.084       .  S
C522       C1153   1.407   1_455  A
C522        C523   1.410       .  A
C523        C524   1.403       .  A
C523        N530   1.438       .  S
C524        C525   1.407       .  A
C524        H529   1.082       .  S
C525       C1158   1.414   1_455  A
C526       C1157   1.414       .  A
C526        N527   1.437       .  S
N527        H531   1.046       .  S
N527        H532   1.046       .  S
N530        H533   1.045       .  S
N530        H534   1.046       .  S
C535       C1168   1.402       .  A
C535        C540   1.401       .  A
C535        H542   1.084       .  S
C536       C1167   1.402   1_455  A
C536        C537   1.417       .  A
C537        C538   1.400       .  A
C537        N544   1.433       .  S
C538        C539   1.402   1_455  A
C538        H543   1.084       .  S
C539       C1172   1.415       .  A
C540       C1171   1.415       .  A
C540        N541   1.432       .  S
N541        H545   1.043       .  S
N541        H546   1.046       .  S
N544        H547   1.046       .  S
N544        H548   1.045       .  S
C549        C550   1.402   1_455  A
C549        C554   1.402       .  A
C549        H556   1.084       .  S
C550       C1183   1.412       .  A
C551       C1182   1.412       .  A
C551        C552   1.411       .  A
C551        N558   1.438       .  S
C552       C1185   1.408       .  A
C552        H557   1.083       .  S
C553       C1184   1.408   1_455  A
C553        C554   1.411       .  A
C554        N555   1.431       .  S
N555        H559   1.046       .  S
N555        H560   1.046       .  S
N558        H561   1.045       .  S
N558        H562   1.046       .  S
C563       C1196   1.401       .  A
C563        C568   1.395       .  A
C563        H570   1.084       .  S
C564       C1195   1.401       .  A
C564        C565   1.411   1_655  A
C565        C566   1.409       .  A
C565        N572   1.438       .  S
C566        C567   1.407   1_455  A
C566        H571   1.083       .  S
C567       C1200   1.417       .  A
C568       C1199   1.417       .  A
C568        N569   1.432       .  S
N569        H573   1.043       .  S
N569        H574   1.045       .  S
N572        H575   1.045       .  S
N572        H576   1.046       .  S
C577        C578   1.406       .  A
C577        C582   1.407       .  A
C577        H584   1.083       .  S
C578        C579   1.414       .  A
C579        C580   1.396       .  A
C579        N586   1.432       .  S
C580        C581   1.403       .  A
C580        H585   1.081       .  S
C581        C582   1.409       .  A
C582        N583   1.437       .  S
N583        H587   1.046       .  S
N583        H588   1.045       .  S
N586        H589   1.046       .  S
N586        H590   1.043       .  S
C591        C592   1.399       .  A
C591        C596   1.394       .  A
C591        H598   1.084       .  S
C592        C593   1.414       .  A
C593        C594   1.410       .  A
C593        N600   1.438       .  S
C594        C595   1.404       .  A
C594        H599   1.083       .  S
C595        C596   1.419       .  A
C596        N597   1.433       .  S
N597        H601   1.042       .  S
N597        H602   1.046       .  S
N600        H603   1.045       .  S
N600        H604   1.046       .  S
C605        C606   1.405       .  A
C605        C610   1.402       .  A
C605        H612   1.084       .  S
C606        C607   1.413       .  A
C607        C608   1.391       .  A
C607        N614   1.431       .  S
C608        C609   1.403       .  A
C608        H613   1.084       .  S
C609        C610   1.414       .  A
C610        N611   1.432       .  S
N611        H615   1.042       .  S
N611        H616   1.046       .  S
N614        H617   1.043       .  S
N614        H618   1.045       .  S
C619        C620   1.400       .  A
C619        C624   1.403       .  A
C619        H626   1.083       .  S
C620        C621   1.415       .  A
C621        C622   1.403       .  A
C621        N628   1.432       .  S
C622        C623   1.402       .  A
C622        H627   1.084       .  S
C623        C624   1.412       .  A
C624        N625   1.438       .  S
N625        H629   1.046       .  S
N625        H630   1.045       .  S
N628        H631   1.046       .  S
N628        H632   1.043       .  S
O633        V641   1.911   1_554  S
O633        C643   1.267       .  A
O634        V957   1.909       .  S
O634        C644   1.267       .  A
O635        V641   1.898   1_554  S
O635        C645   1.263       .  A
O636        V957   1.897       .  S
O636        C646   1.263       .  A
O637        V642   1.898       .  S
O637        C646   1.264       .  A
O638        V958   1.899   1_554  S
O638        C645   1.266       .  A
O639        V642   1.891       .  S
O639        C644   1.261       .  A
O640        V958   1.889   1_554  S
O640        C643   1.261       .  A
V641        O950   1.909       .  S
V641        O952   1.897       .  S
V641        V958   2.088       .  T
V642        O954   1.899       .  S
V642        O956   1.889       .  S
V642        V957   2.088       .  T
C643        C939   1.474       .  S
C644        C897   1.476       .  S
C645        C908   1.478       .  S
C646        C922   1.475       .  S
O647        V655   1.897   1_565  S
O647        C657   1.263       .  A
O648        V971   1.894       .  S
O648        C658   1.263       .  A
O649        V655   1.903       .  S
O649        C659   1.265       .  A
O650        V971   1.905   1_565  S
O650        C660   1.267       .  A
O651        V972   1.901       .  S
O652        V656   1.894   1_545  S
O653        V972   1.913   1_545  S
O654        V656   1.907       .  S
V655        O964   1.894   1_554  S
V655        O966   1.905   1_544  S
V656        O967   1.901   1_554  S
V656        O969   1.913   1_564  S
C657        C852   1.479       .  S
C658        C866   1.481       .  S
C659        C880   1.477       .  S
C660        C838   1.484       .  S
C661        C663   1.557       .  S
C661        C665   1.532       .  S
C661        C664   1.538       .  S
C661        C796   1.540       .  S
C662        C666   1.551       .  S
C662        C668   1.545       .  S
C662        C667   1.538       .  S
C662        C810   1.540       .  S
C663        C671   1.385       .  A
C664        C675   1.380       .  A
C665        C679   1.377       .  A
C666        C669   1.383       .  A
C667        C673   1.380       .  A
C668        C676   1.384       .  A
C669        N670   1.355       .  A
C669        H682   1.081       .  S
N670        C827   1.437       .  S
C671        H672   1.080       .  S
C673        N674   1.362       .  A
C673        H683   1.082       .  S
N674        C869   1.446       .  S
C675        H681   1.082       .  S
C676        N677   1.356       .  A
C676        H678   1.080       .  S
N677        C883   1.442       .  S
C679        H680   1.080       .  S
C684        C686   1.542       .  S
C684        C688   1.527       .  S
C684        C687   1.545       .  S
C684        C785   1.536       .  S
C685        C689   1.568       .  S
C685        C691   1.533       .  S
C685        C690   1.547       .  S
C685        C771   1.546       .  S
C686        C694   1.379       .  A
C687        C698   1.378       .  A
C688        C702   1.379       .  A
C689        C692   1.393       .  A
C690        C696   1.384       .  A
C691        C699   1.379       .  A
C692        H705   1.079       .  S
N693        C694   1.351       .  A
N693        C824   1.439       .  S
C694        H695   1.082       .  S
C696        H706   1.081       .  S
N697        C698   1.358       .  A
N697        C841   1.449       .  S
C698        H704   1.081       .  S
C699        H701   1.082       .  S
N700        C702   1.358       .  A
N700        C855   1.439       .  S
C702        H703   1.083       .  S
C707        C709   1.567       .  S
C707        C711   1.528       .  S
C707        C710   1.543       .  S
C707        C768   1.546       .  S
C708        C712   1.537       .  S
C708        C714   1.528       .  S
C708        C713   1.549       .  S
C708        C782   1.538       .  S
C709        C717   1.392       .  A
C709        C712   1.405       .  A
C710        C721   1.382       .  A
C710        C713   1.396       .  A
C711        C725   1.374       .  A
C711        C714   1.382       .  A
C712        C715   1.376       .  A
C713        C719   1.378       .  A
C714        C722   1.377       .  A
C715        N716   1.354       .  A
C715        H728   1.082       .  S
N716        C717   1.361       .  A
N716        C754   1.446       .  S
C717        H718   1.080       .  S
C719        N720   1.355       .  A
C719        H729   1.080       .  S
N720        C721   1.358       .  A
N720        C911   1.442       .  S
C721        H727   1.082       .  S
C722        N723   1.359       .  A
C722        H724   1.080       .  S
N723        C725   1.357       .  A
N723        C894   1.439       .  S
C725        H726   1.083       .  S
C730        C732   1.550       .  S
C730        C734   1.541       .  S
C730        C733   1.539       .  S
C730        C813   1.540       .  S
C731        C735   1.557       .  S
C731        C737   1.530       .  S
C731        C736   1.533       .  S
C731        C799   1.537       .  S
C732        C740   1.383       .  A
C732        C735   1.407       .  A
C733        C744   1.380       .  A
C733        C736   1.389       .  A
C734        C748   1.378       .  A
C734        C737   1.386       .  A
C735        C738   1.382       .  A
C736        C742   1.377       .  A
C737        C745   1.378       .  A
C738        N739   1.356       .  A
C738        H751   1.080       .  S
N739        C740   1.359       .  A
N739        C757   1.442       .  S
C740        H741   1.081       .  S
C742        N743   1.355       .  A
C742        H752   1.082       .  S
N743        C744   1.360       .  A
N743        C936   1.437       .  S
C744        H750   1.082       .  S
C745        N746   1.357       .  A
C745        H747   1.080       .  S
N746        C748   1.356       .  A
N746        C925   1.438       .  S
C748        H749   1.081       .  S
C753        C754   1.407       .  A
C753        C758   1.409   1_565  A
C753        H760   1.083       .  S
C754        C755   1.414       .  A
C755        C756   1.406   1_565  A
C755        N762   1.437       .  S
C756        C757   1.403       .  A
C756        H761   1.083       .  S
C757        C758   1.410       .  A
C758        N759   1.437       .  S
N759        H763   1.046       .  S
N759        H764   1.046       .  S
N762        H765   1.046       .  S
N762        H766   1.046       .  S
C767        C768   1.402       .  A
C767        C772   1.401       .  A
C767        H774   1.074       .  S
C768        C769   1.428       .  A
C769        C770   1.405       .  A
C769        N776   1.441       .  S
C770        C771   1.405       .  A
C770        H775   1.070       .  S
C771        C772   1.430       .  A
C772        N773   1.442       .  S
N773        H777   1.046       .  S
N773        H778   1.037       .  S
N776        H779   1.038       .  S
N776        H780   1.046       .  S
C781        C782   1.407       .  A
C781        C786   1.401       .  A
C781        H788   1.075       .  S
C782        C783   1.418       .  A
C783        C784   1.407       .  A
C783        N790   1.438       .  S
C784        C785   1.408       .  A
C784        H789   1.078       .  S
C785        C786   1.414       .  A
C786        N787   1.438       .  S
N787        H791   1.046       .  S
N787        H792   1.045       .  S
N790        H793   1.045       .  S
N790        H794   1.046       .  S
C795        C796   1.403       .  A
C795        C800   1.405       .  A
C795        H802   1.071       .  S
C796        C797   1.423       .  A
C797        C798   1.403       .  A
C797        N804   1.440       .  S
C798        C799   1.401       .  A
C798        H803   1.074       .  S
C799        C800   1.421       .  A
C800        N801   1.439       .  S
N801        H805   1.045       .  S
N801        H806   1.044       .  S
N804        H807   1.043       .  S
N804        H808   1.046       .  S
C809        C810   1.411       .  A
C809        C814   1.405       .  A
C809        H816   1.073       .  S
C810        C811   1.411       .  A
C811        C812   1.402       .  A
C811        N818   1.433       .  S
C812        C813   1.412       .  A
C812        H817   1.077       .  S
C813        C814   1.410       .  A
C814        N815   1.432       .  S
N815        H819   1.046       .  S
N815        H820   1.046       .  S
N818        H821   1.046       .  S
N818        H822   1.046       .  S
C823        C828   1.401       .  A
C823        H830   1.083       .  S
C824        C825   1.413       .  A
C825        C826   1.404       .  A
C825        N832   1.431       .  S
C826        C827   1.403       .  A
C826        H831   1.083       .  S
C828        N829   1.432       .  S
N829        H833   1.045       .  S
N829        H834   1.046   1_655  S
N832        H835   1.046       .  S
N832        H836   1.044       .  S
C837        C842   1.412       .  A
C837        H844   1.084       .  S
C838        C839   1.410       .  A
C839        C840   1.403       .  A
C839        N846   1.438       .  S
C840        C841   1.407       .  A
C840        H845   1.082       .  S
C842        N843   1.437       .  S
N843        H847   1.046       .  S
N843        H848   1.046       .  S
N846        H849   1.045       .  S
N846        H850   1.046       .  S
C851        C856   1.401       .  A
C851        H858   1.084       .  S
C852        C853   1.417       .  A
C853        C854   1.400       .  A
C853        N860   1.433       .  S
C854        C855   1.402       .  A
C854        H859   1.084       .  S
C856        N857   1.432       .  S
N857        H861   1.043       .  S
N857        H862   1.046       .  S
N860        H863   1.046       .  S
N860        H864   1.045       .  S
C865        C866   1.402       .  A
C865        C870   1.402       .  A
C865        H872   1.084       .  S
C867        C868   1.411       .  A
C867        N874   1.438       .  S
C868        H873   1.083       .  S
C869        C870   1.411       .  A
C870        N871   1.431       .  S
N871        H875   1.046       .  S
N871        H876   1.046       .  S
N874        H877   1.045       .  S
N874        H878   1.046       .  S
C879        C884   1.395       .  A
C879        H886   1.084       .  S
C880        C881   1.411       .  A
C881        C882   1.409       .  A
C881        N888   1.438       .  S
C882        C883   1.407       .  A
C882        H887   1.083       .  S
C884        N885   1.432       .  S
N885        H889   1.043       .  S
N885        H890   1.045       .  S
N888        H891   1.045       .  S
N888        H892   1.046       .  S
C893        C894   1.406       .  A
C893        C898   1.407       .  A
C893        H900   1.083       .  S
C894        C895   1.414       .  A
C895        C896   1.396       .  A
C895        N902   1.432       .  S
C896        C897   1.403       .  A
C896        H901   1.081       .  S
C897        C898   1.409       .  A
C898        N899   1.437       .  S
N899        H903   1.046       .  S
N899        H904   1.045       .  S
N902        H905   1.046       .  S
N902        H906   1.043       .  S
C907        C908   1.399       .  A
C907        C912   1.394       .  A
C907        H914   1.084       .  S
C908        C909   1.414       .  A
C909        C910   1.410       .  A
C909        N916   1.438       .  S
C910        C911   1.404       .  A
C910        H915   1.083       .  S
C911        C912   1.419       .  A
C912        N913   1.433       .  S
N913        H917   1.042       .  S
N913        H918   1.046       .  S
N916        H919   1.045       .  S
N916        H920   1.046       .  S
C921        C922   1.405       .  A
C921        C926   1.402       .  A
C921        H928   1.084       .  S
C922        C923   1.413       .  A
C923        C924   1.391       .  A
C923        N930   1.431       .  S
C924        C925   1.403       .  A
C924        H929   1.084       .  S
C925        C926   1.414       .  A
C926        N927   1.432       .  S
N927        H931   1.042       .  S
N927        H932   1.046       .  S
N930        H933   1.043       .  S
N930        H934   1.045       .  S
C935        C936   1.400       .  A
C935        C940   1.403       .  A
C935        H942   1.083       .  S
C936        C937   1.415       .  A
C937        C938   1.403       .  A
C937        N944   1.432       .  S
C938        C939   1.402       .  A
C938        H943   1.084       .  S
C939        C940   1.412       .  A
C940        N941   1.438       .  S
N941        H945   1.046       .  S
N941        H946   1.045       .  S
N944        H947   1.046       .  S
N944        H948   1.043       .  S
O949        V957   1.911       .  S
O949        C959   1.267       .  A
O950        C960   1.267       .  A
O951        V957   1.898       .  S
O951        C961   1.263       .  A
O952        C962   1.263       .  A
O953        V958   1.898       .  S
O953        C962   1.264       .  A
O954        C961   1.266       .  A
O955        V958   1.891       .  S
O955        C960   1.261       .  A
O956        C959   1.261       .  A
C959       C1255   1.474       .  S
C960       C1213   1.476       .  S
C961       C1224   1.478       .  S
C962       C1238   1.475       .  S
O963        V971   1.897   1_565  S
O963        C973   1.263       .  A
O964        C974   1.263       .  A
O965        V971   1.903       .  S
O965        C975   1.265       .  A
O966        C976   1.267       .  A
O968        V972   1.894   1_545  S
O970        V972   1.907       .  S
C973       C1168   1.479       .  S
C974       C1182   1.481       .  S
C975       C1196   1.477       .  S
C976       C1154   1.484       .  S
C977        C979   1.557       .  S
C977        C981   1.532       .  S
C977        C980   1.538       .  S
C977       C1112   1.540       .  S
C978        C982   1.551       .  S
C978        C984   1.545       .  S
C978        C983   1.538       .  S
C978       C1126   1.540       .  S
C979        C987   1.385       .  A
C980        C991   1.380       .  A
C981        C995   1.377       .  A
C982        C985   1.383       .  A
C983        C989   1.380       .  A
C984        C992   1.384       .  A
C985        N986   1.355       .  A
C985        H998   1.081       .  S
N986       C1143   1.437       .  S
C987        H988   1.080       .  S
C989        N990   1.362       .  A
C989        H999   1.082       .  S
N990       C1185   1.446       .  S
C991        H997   1.082       .  S
C992        N993   1.356       .  A
C992        H994   1.080       .  S
N993       C1199   1.442       .  S
C995        H996   1.080       .  S
C1000      C1002   1.542       .  S
C1000      C1004   1.527       .  S
C1000      C1003   1.545       .  S
C1000      C1101   1.536       .  S
C1001      C1005   1.568       .  S
C1001      C1007   1.533       .  S
C1001      C1006   1.547       .  S
C1001      C1087   1.546       .  S
C1002      C1010   1.379       .  A
C1003      C1014   1.378       .  A
C1004      C1018   1.379       .  A
C1005      C1008   1.393       .  A
C1006      C1012   1.384       .  A
C1007      C1015   1.379       .  A
C1008      H1021   1.079       .  S
N1009      C1010   1.351       .  A
N1009      C1140   1.439       .  S
C1010      H1011   1.082       .  S
C1012      H1022   1.081       .  S
N1013      C1014   1.358       .  A
N1013      C1157   1.449       .  S
C1014      H1020   1.081       .  S
C1015      H1017   1.082       .  S
N1016      C1018   1.358       .  A
N1016      C1171   1.439       .  S
C1018      H1019   1.083       .  S
C1023      C1025   1.567       .  S
C1023      C1027   1.528       .  S
C1023      C1026   1.543       .  S
C1023      C1084   1.546       .  S
C1024      C1028   1.537       .  S
C1024      C1030   1.528       .  S
C1024      C1029   1.549       .  S
C1024      C1098   1.538       .  S
C1025      C1033   1.392       .  A
C1025      C1028   1.405       .  A
C1026      C1037   1.382       .  A
C1026      C1029   1.396       .  A
C1027      C1041   1.374       .  A
C1027      C1030   1.382       .  A
C1028      C1031   1.376       .  A
C1029      C1035   1.378       .  A
C1030      C1038   1.377       .  A
C1031      N1032   1.354       .  A
C1031      H1044   1.082       .  S
N1032      C1033   1.361       .  A
N1032      C1070   1.446       .  S
C1033      H1034   1.080       .  S
C1035      N1036   1.355       .  A
C1035      H1045   1.080       .  S
N1036      C1037   1.358       .  A
N1036      C1227   1.442       .  S
C1037      H1043   1.082       .  S
C1038      N1039   1.359       .  A
C1038      H1040   1.080       .  S
N1039      C1041   1.357       .  A
N1039      C1210   1.439       .  S
C1041      H1042   1.083       .  S
C1046      C1048   1.550       .  S
C1046      C1050   1.541       .  S
C1046      C1049   1.539       .  S
C1046      C1129   1.540       .  S
C1047      C1051   1.557       .  S
C1047      C1053   1.530       .  S
C1047      C1052   1.533       .  S
C1047      C1115   1.537       .  S
C1048      C1056   1.383       .  A
C1048      C1051   1.407       .  A
C1049      C1060   1.380       .  A
C1049      C1052   1.389       .  A
C1050      C1064   1.378       .  A
C1050      C1053   1.386       .  A
C1051      C1054   1.382       .  A
C1052      C1058   1.377       .  A
C1053      C1061   1.378       .  A
C1054      N1055   1.356       .  A
C1054      H1067   1.080       .  S
N1055      C1056   1.359       .  A
N1055      C1073   1.442       .  S
C1056      H1057   1.081       .  S
C1058      N1059   1.355       .  A
C1058      H1068   1.082       .  S
N1059      C1060   1.360       .  A
N1059      C1252   1.437       .  S
C1060      H1066   1.082       .  S
C1061      N1062   1.357       .  A
C1061      H1063   1.080       .  S
N1062      C1064   1.356       .  A
N1062      C1241   1.438       .  S
C1064      H1065   1.081       .  S
C1069      C1070   1.407       .  A
C1069      C1074   1.409   1_565  A
C1069      H1076   1.083       .  S
C1070      C1071   1.414       .  A
C1071      C1072   1.406   1_565  A
C1071      N1078   1.437       .  S
C1072      C1073   1.403       .  A
C1072      H1077   1.083       .  S
C1073      C1074   1.410       .  A
C1074      N1075   1.437       .  S
N1075      H1079   1.046       .  S
N1075      H1080   1.046       .  S
N1078      H1081   1.046       .  S
N1078      H1082   1.046       .  S
C1083      C1084   1.402       .  A
C1083      C1088   1.401       .  A
C1083      H1090   1.074       .  S
C1084      C1085   1.428       .  A
C1085      C1086   1.405       .  A
C1085      N1092   1.441       .  S
C1086      C1087   1.405       .  A
C1086      H1091   1.070       .  S
C1087      C1088   1.430       .  A
C1088      N1089   1.442       .  S
N1089      H1093   1.046       .  S
N1089      H1094   1.037       .  S
N1092      H1095   1.038       .  S
N1092      H1096   1.046       .  S
C1097      C1098   1.407       .  A
C1097      C1102   1.401       .  A
C1097      H1104   1.075       .  S
C1098      C1099   1.418       .  A
C1099      C1100   1.407       .  A
C1099      N1106   1.438       .  S
C1100      C1101   1.408       .  A
C1100      H1105   1.078       .  S
C1101      C1102   1.414       .  A
C1102      N1103   1.438       .  S
N1103      H1107   1.046       .  S
N1103      H1108   1.045       .  S
N1106      H1109   1.045       .  S
N1106      H1110   1.046       .  S
C1111      C1112   1.403       .  A
C1111      C1116   1.405       .  A
C1111      H1118   1.071       .  S
C1112      C1113   1.423       .  A
C1113      C1114   1.403       .  A
C1113      N1120   1.440       .  S
C1114      C1115   1.401       .  A
C1114      H1119   1.074       .  S
C1115      C1116   1.421       .  A
C1116      N1117   1.439       .  S
N1117      H1121   1.045       .  S
N1117      H1122   1.044       .  S
N1120      H1123   1.043       .  S
N1120      H1124   1.046       .  S
C1125      C1126   1.411       .  A
C1125      C1130   1.405       .  A
C1125      H1132   1.073       .  S
C1126      C1127   1.411       .  A
C1127      C1128   1.402       .  A
C1127      N1134   1.433       .  S
C1128      C1129   1.412       .  A
C1128      H1133   1.077       .  S
C1129      C1130   1.410       .  A
C1130      N1131   1.432       .  S
N1131      H1135   1.046       .  S
N1131      H1136   1.046       .  S
N1134      H1137   1.046       .  S
N1134      H1138   1.046       .  S
C1139      C1144   1.401       .  A
C1139      H1146   1.083       .  S
C1140      C1141   1.413       .  A
C1141      C1142   1.404       .  A
C1141      N1148   1.431       .  S
C1142      C1143   1.403       .  A
C1142      H1147   1.083       .  S
C1144      N1145   1.432       .  S
N1145      H1149   1.045       .  S
N1145      H1150   1.046   1_655  S
N1148      H1151   1.046       .  S
N1148      H1152   1.044       .  S
C1153      C1158   1.412       .  A
C1153      H1160   1.084       .  S
C1154      C1155   1.410       .  A
C1155      C1156   1.403       .  A
C1155      N1162   1.438       .  S
C1156      C1157   1.407       .  A
C1156      H1161   1.082       .  S
C1158      N1159   1.437       .  S
N1159      H1163   1.046       .  S
N1159      H1164   1.046       .  S
N1162      H1165   1.045       .  S
N1162      H1166   1.046       .  S
C1167      C1172   1.401       .  A
C1167      H1174   1.084       .  S
C1168      C1169   1.417       .  A
C1169      C1170   1.400       .  A
C1169      N1176   1.433       .  S
C1170      C1171   1.402       .  A
C1170      H1175   1.084       .  S
C1172      N1173   1.432       .  S
N1173      H1177   1.043       .  S
N1173      H1178   1.046       .  S
N1176      H1179   1.046       .  S
N1176      H1180   1.045       .  S
C1181      C1182   1.402       .  A
C1181      C1186   1.402       .  A
C1181      H1188   1.084       .  S
C1183      C1184   1.411       .  A
C1183      N1190   1.438       .  S
C1184      H1189   1.083       .  S
C1185      C1186   1.411       .  A
C1186      N1187   1.431       .  S
N1187      H1191   1.046       .  S
N1187      H1192   1.046       .  S
N1190      H1193   1.045       .  S
N1190      H1194   1.046       .  S
C1195      C1200   1.395       .  A
C1195      H1202   1.084       .  S
C1196      C1197   1.411       .  A
C1197      C1198   1.409       .  A
C1197      N1204   1.438       .  S
C1198      C1199   1.407       .  A
C1198      H1203   1.083       .  S
C1200      N1201   1.432       .  S
N1201      H1205   1.043       .  S
N1201      H1206   1.045       .  S
N1204      H1207   1.045       .  S
N1204      H1208   1.046       .  S
C1209      C1210   1.406       .  A
C1209      C1214   1.407       .  A
C1209      H1216   1.083       .  S
C1210      C1211   1.414       .  A
C1211      C1212   1.396       .  A
C1211      N1218   1.432       .  S
C1212      C1213   1.403       .  A
C1212      H1217   1.081       .  S
C1213      C1214   1.409       .  A
C1214      N1215   1.437       .  S
N1215      H1219   1.046       .  S
N1215      H1220   1.045       .  S
N1218      H1221   1.046       .  S
N1218      H1222   1.043       .  S
C1223      C1224   1.399       .  A
C1223      C1228   1.394       .  A
C1223      H1230   1.084       .  S
C1224      C1225   1.414       .  A
C1225      C1226   1.410       .  A
C1225      N1232   1.438       .  S
C1226      C1227   1.404       .  A
C1226      H1231   1.083       .  S
C1227      C1228   1.419       .  A
C1228      N1229   1.433       .  S
N1229      H1233   1.042       .  S
N1229      H1234   1.046       .  S
N1232      H1235   1.045       .  S
N1232      H1236   1.046       .  S
C1237      C1238   1.405       .  A
C1237      C1242   1.402       .  A
C1237      H1244   1.084       .  S
C1238      C1239   1.413       .  A
C1239      C1240   1.391       .  A
C1239      N1246   1.431       .  S
C1240      C1241   1.403       .  A
C1240      H1245   1.084       .  S
C1241      C1242   1.414       .  A
C1242      N1243   1.432       .  S
N1243      H1247   1.042       .  S
N1243      H1248   1.046       .  S
N1246      H1249   1.043       .  S
N1246      H1250   1.045       .  S
C1251      C1252   1.400       .  A
C1251      C1256   1.403       .  A
C1251      H1258   1.083       .  S
C1252      C1253   1.415       .  A
C1253      C1254   1.403       .  A
C1253      N1260   1.432       .  S
C1254      C1255   1.402       .  A
C1254      H1259   1.084       .  S
C1255      C1256   1.412       .  A
C1256      N1257   1.438       .  S
N1257      H1261   1.046       .  S
N1257      H1262   1.045       .  S
N1260      H1263   1.046       .  S
N1260      H1264   1.043       .  S
