geometry optimzed in LAMMPS
_audit_creation_date              2020-11-30 
_audit_creation_method            'lammps2cif' 
_symmetry_space_group_name_H-M    'P1' 
_symmetry_Int_Tables_number       1 
_symmetry_cell_setting            triclinic 
loop_ 
_symmetry_equiv_pos_as_xyz 
  x,y,z 
_cell_length_a                    42.4894369 
_cell_length_b                    42.56139570308596 
_cell_length_c                    26.395005539778246 
_cell_angle_alpha                 89.97695116742015 
_cell_angle_beta                  90.1054996820964 
_cell_angle_gamma                 89.97474967791935 
loop_ 
_atom_site_label 
_atom_site_type_symbol 
_atom_site_fract_x 
_atom_site_fract_y 
_atom_site_fract_z 
_atom_site_charge 
Zn1        Zn  0.76900083  0.10058578  0.04077797     1.49700
Zn2        Zn  0.83902096  0.07688387  0.03141484     1.49400
Zn3        Zn  0.78932102  0.05498140  0.95017549     1.49100
Zn4        Zn  0.81161767  0.12770192  0.95124614     1.49500
O5          O  0.80222113  0.09033332  0.99298359    -1.82100
O6          O  0.78412281  0.09864146  0.11310899    -0.72700
O7          O  0.85077435  0.03174019  0.01842087    -0.72500
O8          O  0.74469757  0.04220853  0.96425264    -0.72000
O9          O  0.83302182  0.08111814  0.10667534    -0.72700
O10         O  0.73296741  0.07051662  0.03214528    -0.72300
O11         O  0.81548979  0.01607717  0.96231186    -0.72900
O12         O  0.80906713  0.11610854  0.87636412    -0.72300
O13         O  0.87506437  0.10433429  0.01425110    -0.73000
O14         O  0.79332668  0.06637810  0.87682790    -0.72400
O15         O  0.85659606  0.14279027  0.96575144    -0.72900
O16         O  0.77969275  0.16321546  0.96468590    -0.72800
O17         O  0.75170939  0.14401696  0.02857383    -0.72600
C18         C  0.81000081  0.09034679  0.13352015     0.79200
C19         C  0.83901908  0.01028110  0.99069331     0.79700
C20         C  0.72580361  0.04956058  0.99965184     0.78600
C21         C  0.80152406  0.09100321  0.85283064     0.79000
C22         C  0.87912208  0.12997191  0.99041509     0.80200
C23         C  0.75752218  0.16592192  0.99709015     0.79200
Zn24       Zn  0.79352501  0.04893625  0.53622985     1.49700
Zn25       Zn  0.84396767  0.07063889  0.45382712     1.49400
Zn26       Zn  0.77258606  0.09389577  0.44614647     1.49100
Zn27       Zn  0.81609626  0.12129538  0.53348930     1.49500
O28         O  0.80672679  0.08374357  0.49254125    -1.82100
O29         O  0.81948845  0.00997519  0.52372657    -0.72700
O30         O  0.83736376  0.07752412  0.37804609    -0.72500
O31         O  0.73620546  0.06389541  0.45385977    -0.72000
O32         O  0.85414325  0.02449113  0.46546895    -0.72700
O33         O  0.74850053  0.03675501  0.52288096    -0.72300
O34         O  0.78756999  0.09323495  0.37437775    -0.72900
O35         O  0.78569359  0.15779747  0.51911116    -0.72300
O36         O  0.88167891  0.09613400  0.47609598    -0.73000
O37         O  0.75519128  0.13712754  0.45961085    -0.72400
O38         O  0.86181145  0.13424963  0.52405627    -0.72900
O39         O  0.81139840  0.11104468  0.60762113    -0.72800
O40         O  0.79719804  0.06094342  0.60993717    -0.72600
C41         C  0.84244011  0.00360114  0.49451521     0.79200
C42         C  0.81345956  0.08664813  0.35265694     0.79700
C43         C  0.72920403  0.04375474  0.48771828     0.78600
C44         C  0.76222701  0.15979168  0.48900085     0.79000
C45         C  0.88519613  0.12097842  0.50251411     0.80200
C46         C  0.80411685  0.08647446  0.63254342     0.79200
Zn47       Zn  0.62303040  0.31688355  0.03926937     1.49700
Zn48       Zn  0.59729940  0.27242109  0.95007460     1.49400
Zn49       Zn  0.55103390  0.29166737  0.03988900     1.49100
Zn50       Zn  0.57232657  0.34298278  0.95784797     1.49500
O51         O  0.58601502  0.30616524  0.99709214    -1.82100
O52         O  0.65930382  0.28560790  0.02705042    -0.72700
O53         O  0.56795848  0.23508786  0.95637340    -0.72500
O54         O  0.56272998  0.29471246  0.11418007    -0.72000
O55         O  0.64071558  0.25600228  0.96439060    -0.72700
O56         O  0.61157973  0.31319683  0.11376538    -0.72300
O57         O  0.53967572  0.24639529  0.02457839    -0.72900
O58         O  0.52654035  0.35375804  0.97217419    -0.72300
O59         O  0.59726458  0.28743972  0.87810385    -0.73000
O60         O  0.51166783  0.31779159  0.02806840    -0.72400
O61         O  0.57698178  0.33553698  0.88192030    -0.72900
O62         O  0.59940947  0.38058022  0.97556891    -0.72800
O63         O  0.63688835  0.36266862  0.02664121    -0.72600
C64         C  0.66231864  0.26278590  0.99595538     0.79200
C65         C  0.54751129  0.22743864  0.98941202     0.79700
C66         C  0.58730515  0.30380632  0.13778757     0.78600
C67         C  0.50546790  0.34157845  0.00040280     0.79000
C68         C  0.58814146  0.31259615  0.85659485     0.80200
C69         C  0.62427527  0.38519978  0.00169378     0.79200
Zn70       Zn  0.59954064  0.26643472  0.45419122     1.49700
Zn71       Zn  0.62941123  0.31206459  0.53761220     1.49400
Zn72       Zn  0.57773683  0.33737833  0.45666670     1.49100
Zn73       Zn  0.55618132  0.29003249  0.54427019     1.49500
O74         O  0.59092039  0.30169102  0.49860416    -1.82100
O75         O  0.64340448  0.25032204  0.46462917    -0.72700
O76         O  0.64414444  0.35665559  0.51945344    -0.72500
O77         O  0.58264558  0.32795214  0.38161852    -0.72000
O78         O  0.66494701  0.27965734  0.52491482    -0.72700
O79         O  0.59416270  0.27702436  0.38027012    -0.72300
O80         O  0.60473321  0.37499224  0.47218840    -0.72900
O81         O  0.51711947  0.31515466  0.52873735    -0.72300
O82         O  0.61891709  0.31264908  0.61323104    -0.73000
O83         O  0.53180039  0.34863951  0.46901620    -0.72400
O84         O  0.56822068  0.29959033  0.61630791    -0.72900
O85         O  0.54358681  0.24390679  0.53803094    -0.72800
O86         O  0.57093946  0.23073155  0.46993011    -0.72600
C87         C  0.66645892  0.25671829  0.49370001     0.79200
C88         C  0.63069653  0.37910610  0.49551941     0.79700
C89         C  0.58829455  0.30268396  0.35743104     0.78600
C90         C  0.51074599  0.33753968  0.49840664     0.79000
C91         C  0.59359963  0.30800547  0.63819711     0.80200
C92         C  0.55084171  0.22403271  0.50388707     0.79200
Zn93       Zn  0.53765271  0.98155993  0.95547538     1.49700
Zn94       Zn  0.53481671  0.03696212  0.03798415     1.49400
Zn95       Zn  0.48369553  0.03589013  0.94971514     1.49100
Zn96       Zn  0.48321106  0.98541079  0.03921064     1.49500
O97         O  0.50988986  0.00991768  0.99475145    -1.82100
O98         O  0.58401756  0.99005095  0.97081490    -0.72700
O99         O  0.52760721  0.08217621  0.02227109    -0.72500
O100        O  0.49375248  0.02515047  0.87749861    -0.72000
O101        O  0.58003076  0.02862957  0.02697994    -0.72700
O102        O  0.53094369  0.98854988  0.88049920    -0.72300
O103        O  0.49312321  0.08282332  0.95884619    -0.72900
O104        O  0.43802829  0.99280415  0.02428418    -0.72300
O105        O  0.52674235  0.03083404  0.11196041    -0.73000
O106        O  0.43685886  0.02675299  0.96030992    -0.72400
O107        O  0.48986735  0.99424527  0.11271510    -0.72900
O108        O  0.49055159  0.93992848  0.02887798    -0.72800
O109        O  0.52741641  0.93564239  0.96973759    -0.72600
C110        C  0.59665530  0.01012168  0.00041524     0.79200
C111        C  0.51125555  0.09708162  0.98985111     0.79700
C112        C  0.51269171  0.00647686  0.85530760     0.78600
C113        C  0.42283863  0.00891763  0.99194431     0.79000
C114        C  0.50812311  0.01292418  0.13601864     0.80200
C115        C  0.50785497  0.92324144  0.00038933     0.79200
Zn116      Zn  0.53736501  0.03362486  0.45280531     1.49700
Zn117      Zn  0.53995904  0.97941550  0.53638399     1.49400
Zn118      Zn  0.48556725  0.03325357  0.53973309     1.49100
Zn119      Zn  0.48584961  0.98164590  0.45150277     1.49500
O120        O  0.51216398  0.00688204  0.49581566    -1.82100
O121        O  0.58294546  0.02503724  0.46177938    -0.72700
O122        O  0.53246973  0.98670692  0.61121615    -0.72500
O123        O  0.49383308  0.08028583  0.52976964    -0.72000
O124        O  0.58615876  0.98871730  0.52201593    -0.72700
O125        O  0.53061412  0.07839516  0.47033191    -0.72300
O126        O  0.49553333  0.02357506  0.61205977    -0.72900
O127        O  0.44056397  0.98802469  0.46758118    -0.72300
O128        O  0.53112054  0.93325295  0.52183922    -0.73000
O129        O  0.43915154  0.02313555  0.52995108    -0.72400
O130        O  0.49474542  0.93606422  0.46150044    -0.72900
O131        O  0.49151303  0.99152769  0.37783060    -0.72800
O132        O  0.52785235  0.02869463  0.37914558    -0.72600
C133        C  0.59915713  0.00746654  0.49068170     0.79200
C134        C  0.51412112  0.00508386  0.63534010     0.79700
C135        C  0.51326664  0.09399596  0.50036408     0.78600
C136        C  0.42535343  0.00440367  0.49947962     0.79000
C137        C  0.51238809  0.92001209  0.49065233     0.80200
C138        C  0.50918517  0.01091389  0.35485418     0.79200
Zn139      Zn  0.38878092  0.70696413  0.04117832     1.49700
Zn140      Zn  0.41808724  0.75245924  0.95596496     1.49400
Zn141      Zn  0.46087719  0.73067204  0.04703468     1.49100
Zn142      Zn  0.44162275  0.68191742  0.96110097     1.49500
O143        O  0.42699492  0.71763681  0.00155961    -1.82100
O144        O  0.35298991  0.73906478  0.02736776    -0.72700
O145        O  0.44786504  0.78855053  0.96644653    -0.72500
O146        O  0.44838059  0.72458124  0.11906349    -0.72000
O147        O  0.37472492  0.76881014  0.96781371    -0.72700
O148        O  0.39917583  0.70684701  0.11744490    -0.72300
O149        O  0.47288310  0.77582065  0.03743466    -0.72900
O150        O  0.48666708  0.67013296  0.97866682    -0.72300
O151        O  0.42109538  0.74024411  0.88311595    -0.73000
O152        O  0.50035071  0.70567107  0.03601762    -0.72400
O153        O  0.44025250  0.69174795  0.88537642    -0.72900
O154        O  0.41372586  0.64448128  0.97493403    -0.72800
O155        O  0.37453288  0.66232869  0.02311540    -0.72600
C156        C  0.35157286  0.76216313  0.99636563     0.79200
C157        C  0.46705854  0.79513042  0.00189169     0.79700
C158        C  0.42392346  0.71482276  0.14185716     0.78600
C159        C  0.50707063  0.68218059  0.00833084     0.79000
C160        C  0.43102339  0.71580698  0.86060571     0.80200
C161        C  0.38793647  0.64014582  0.99861628     0.79200
Zn162      Zn  0.44657263  0.67697215  0.46048177     1.49700
Zn163      Zn  0.42340290  0.74788971  0.45585873     1.49400
Zn164      Zn  0.39703212  0.70402082  0.54382002     1.49100
Zn165      Zn  0.47018786  0.72610285  0.54399655     1.49500
O166        O  0.43418084  0.71353893  0.50142035    -1.82100
O167        O  0.43988793  0.68458470  0.38467320    -0.72700
O168        O  0.37955169  0.76424805  0.46803370    -0.72500
O169        O  0.38373206  0.65793492  0.53362254    -0.72000
O170        O  0.42580330  0.73484685  0.38332335    -0.72700
O171        O  0.41973858  0.64034245  0.47980312    -0.72300
O172        O  0.36012377  0.73435319  0.52938909    -0.72900
O173        O  0.45932333  0.72269918  0.61823797    -0.72300
O174        O  0.45302937  0.78397141  0.46491066    -0.73000
O175        O  0.40859204  0.70955028  0.61793318    -0.72400
O176        O  0.48403281  0.77074769  0.52913368    -0.72900
O177        O  0.50798170  0.69862184  0.53141588    -0.72800
O178        O  0.49244914  0.66458134  0.47289031    -0.72600
C179        C  0.43208172  0.70933533  0.36046634     0.79200
C180        C  0.35729508  0.75714981  0.49815151     0.79700
C181        C  0.39581613  0.63557591  0.50770124     0.78600
C182        C  0.43388379  0.71639050  0.64158982     0.79000
C183        C  0.47534099  0.79035537  0.49541735     0.80200
C184        C  0.51367095  0.67547362  0.50231430     0.79200
Zn185      Zn  0.17626793  0.94918537  0.95444232     1.49700
Zn186      Zn  0.20278643  0.89834742  0.03465759     1.49400
Zn187      Zn  0.24736128  0.92528424  0.94821222     1.49100
Zn188      Zn  0.22713760  0.97049515  0.03739627     1.49500
O189        O  0.21315662  0.93579989  0.99398731    -1.82100
O190        O  0.13819338  0.92302232  0.97315354    -0.72700
O191        O  0.23307320  0.86164950  0.02117467    -0.72500
O192        O  0.23308549  0.92690164  0.87656997    -0.72000
O193        O  0.15726905  0.88502879  0.02217396    -0.72700
O194        O  0.18361493  0.94343202  0.87897629    -0.72300
O195        O  0.26349809  0.88175233  0.96126176    -0.72900
O196        O  0.27289816  0.98139316  0.02492249    -0.72300
O197        O  0.20664424  0.90892966  0.10909950    -0.73000
O198        O  0.28462599  0.95399594  0.95602411    -0.72400
O199        O  0.22267922  0.95850779  0.11108924    -0.72900
O200        O  0.20168458  0.00998156  0.02398145    -0.72800
O201        O  0.16638747  0.99520545  0.96677133    -0.72600
C202        C  0.13429380  0.89788837  0.99872926     0.79200
C203        C  0.25628413  0.85924410  0.99077690     0.79700
C204        C  0.20760303  0.93418301  0.85417893     0.78600
C205        C  0.29212623  0.97381069  0.99001515     0.79000
C206        C  0.21467272  0.93335369  0.13391539     0.80200
C207        C  0.17846769  0.01631066  0.99504684     0.79200
Zn208      Zn  0.18039500  0.94296954  0.53346843     1.49700
Zn209      Zn  0.25068113  0.91757011  0.54263126     1.49400
Zn210      Zn  0.20710808  0.89234435  0.45250379     1.49100
Zn211      Zn  0.23119093  0.96430633  0.45283517     1.49500
O212        O  0.21726106  0.92907624  0.49507772    -1.82100
O213        O  0.18735578  0.93921144  0.60854317    -0.72700
O214        O  0.26624818  0.87332472  0.53082112    -0.72500
O215        O  0.16171858  0.87829271  0.46598882    -0.72000
O216        O  0.23594150  0.92069299  0.61448999    -0.72700
O217        O  0.14340642  0.91535572  0.51780648    -0.72300
O218        O  0.23850291  0.85605301  0.46501041    -0.72900
O219        O  0.22653727  0.95372590  0.37892194    -0.72300
O220        O  0.28835966  0.94594362  0.53448817    -0.73000
O221        O  0.20979084  0.90439027  0.37808719    -0.72400
O222        O  0.27654127  0.97465919  0.46681754    -0.72900
O223        O  0.20640415  0.00415517  0.46615138    -0.72800
O224        O  0.16978314  0.98870381  0.52028207    -0.72600
C225        C  0.21048202  0.92978909  0.63513704     0.79200
C226        C  0.26024632  0.85221771  0.49802198     0.79700
C227        C  0.13944303  0.89036140  0.49205643     0.78600
C228        C  0.21776788  0.92937291  0.35467035     0.79000
C229        C  0.29576257  0.96644714  0.50143937     0.80200
C230        C  0.18264918  0.01020403  0.49382929     0.79200
Zn231      Zn  0.94215313  0.84165695  0.04538957     1.49700
Zn232      Zn  0.89487814  0.81684300  0.95776438     1.49400
Zn233      Zn  0.96632997  0.79146438  0.96404410     1.49100
Zn234      Zn  0.91617183  0.77118695  0.04791465     1.49500
O235        O  0.92978397  0.80544444  0.00365670    -1.82100
O236        O  0.91528877  0.87891906  0.02795468    -0.72700
O237        O  0.90931674  0.81420060  0.88459024    -0.72500
O238        O  0.00490828  0.81759251  0.97902911    -0.72000
O239        O  0.88120377  0.86212138  0.97029002    -0.72700
O240        O  0.98791269  0.85403805  0.03278494    -0.72300
O241        O  0.95760880  0.79412715  0.88897841    -0.72900
O242        O  0.94385150  0.73303807  0.03947613    -0.72300
O243        O  0.85714534  0.78697453  0.96633525    -0.73000
O244        O  0.97761074  0.74680291  0.97939727    -0.72400
O245        O  0.87156078  0.75795979  0.03253334    -0.72900
O246        O  0.91861014  0.78336902  0.12100386    -0.72800
O247        O  0.93607570  0.83265194  0.12066825    -0.72600
C248        C  0.89208598  0.88397103  0.99845032     0.79200
C249        C  0.93430280  0.80420462  0.86328163     0.79700
C250        C  0.00975270  0.84186428  0.00609886     0.78600
C251        C  0.96691956  0.72667897  0.01050081     0.79000
C252        C  0.85152663  0.76529578  0.99857992     0.80200
C253        C  0.92679983  0.80820841  0.14424813     0.79200
Zn254      Zn  0.96770445  0.78934710  0.45537343     1.49700
Zn255      Zn  0.89532782  0.81062150  0.46557292     1.49400
Zn256      Zn  0.92707980  0.76533832  0.54861319     1.49100
Zn257      Zn  0.94835646  0.83673624  0.54336788     1.49500
O258        O  0.93438929  0.80066274  0.50313842    -1.82100
O259        O  0.95318187  0.79494868  0.38396315    -0.72700
O260        O  0.86006333  0.77933770  0.48226420    -0.72500
O261        O  0.95703713  0.72992716  0.53431937    -0.72000
O262        O  0.90304068  0.80923846  0.38921730    -0.72700
O263        O  0.98151761  0.74440601  0.46379729    -0.72300
O264        O  0.88307472  0.74861119  0.53938567    -0.72900
O265        O  0.94395882  0.82814550  0.61900624    -0.72300
O266        O  0.88160774  0.85535342  0.48117130    -0.73000
O267        O  0.93233444  0.77732676  0.62182097    -0.72400
O268        O  0.92198384  0.87475795  0.52528233    -0.72900
O269        O  0.99434042  0.84695694  0.52958645    -0.72800
O270        O  0.00649777  0.81577087  0.46518133    -0.72600
C271        C  0.92735787  0.80270368  0.36294805     0.79200
C272        C  0.85923780  0.75586504  0.51241895     0.79700
C273        C  0.97623987  0.72435084  0.49849061     0.78600
C274        C  0.93836288  0.80314294  0.64410130     0.79000
C275        C  0.89577162  0.87832274  0.50233167     0.80200
C276        C  0.01400660  0.83704928  0.49680263     0.79200
Zn277      Zn  0.67571917  0.57960418  0.96536076     1.49700
Zn278      Zn  0.70223440  0.63162450  0.04587698     1.49400
Zn279      Zn  0.72556103  0.55889698  0.04786419     1.49100
Zn280      Zn  0.74603766  0.60473418  0.95806900     1.49500
O281        O  0.71219911  0.59395512  0.00467778    -1.82100
O282        O  0.63815954  0.60577611  0.98397342    -0.72700
O283        O  0.70823156  0.62180606  0.12118947    -0.72500
O284        O  0.69943900  0.51924047  0.03757907    -0.72000
O285        O  0.65596437  0.64358146  0.03478211    -0.72700
O286        O  0.66546461  0.53360760  0.97844584    -0.72300
O287        O  0.72341913  0.57192104  0.12079563    -0.72900
O288        O  0.78331573  0.57641203  0.96766380    -0.72300
O289        O  0.73165267  0.66884274  0.02888471    -0.73000
O290        O  0.77030815  0.54653623  0.03315172    -0.72400
O291        O  0.76139317  0.64898002  0.96776014    -0.72900
O292        O  0.73223130  0.60065382  0.88626052    -0.72800
O293        O  0.68292663  0.58394531  0.88963263    -0.72600
C294        C  0.63350293  0.63036853  0.01047610     0.79200
C295        C  0.71663910  0.59698093  0.14481164     0.79700
C296        C  0.67674548  0.51262274  0.00780710     0.78600
C297        C  0.78997709  0.55495004  0.99948635     0.79000
C298        C  0.75414300  0.67157014  0.99705229     0.80200
C299        C  0.70696748  0.59234107  0.86421269     0.79200
Zn300      Zn  0.73204108  0.55210312  0.45882878     1.49700
Zn301      Zn  0.68163232  0.56992819  0.54302923     1.49400
Zn302      Zn  0.75234342  0.59377487  0.55232373     1.49100
Zn303      Zn  0.70764233  0.62402435  0.46791820     1.49500
O304        O  0.71821757  0.58511412  0.50515319    -1.82100
O305        O  0.70731943  0.51163252  0.46831891    -0.72700
O306        O  0.68815468  0.57497764  0.61892544    -0.72500
O307        O  0.78903142  0.56434408  0.54308150    -0.72000
O308        O  0.67233360  0.52434411  0.52735871    -0.72700
O309        O  0.77752713  0.54112594  0.47007344    -0.72300
O310        O  0.73745631  0.59172391  0.62389778    -0.72900
O311        O  0.73813293  0.65999153  0.48507031    -0.72300
O312        O  0.64317667  0.59516114  0.52482391    -0.73000
O313        O  0.76937740  0.63718347  0.54154416    -0.72400
O314        O  0.66200353  0.63645176  0.48267693    -0.72900
O315        O  0.71144225  0.61653973  0.39188072    -0.72800
O316        O  0.72765540  0.56707509  0.38693000    -0.72600
C317        C  0.68436226  0.50439109  0.49704832     0.79200
C318        C  0.71161089  0.58434227  0.64502763     0.79700
C319        C  0.79653322  0.54650923  0.50634103     0.78600
C320        C  0.76195947  0.66086761  0.51460761     0.79000
C321        C  0.63917407  0.62161505  0.50319105     0.80200
C322        C  0.71968834  0.59275867  0.36561505     0.79200
Zn323      Zn  0.12271325  0.20894377  0.96493039     1.49700
Zn324      Zn  0.05071769  0.23259856  0.95915507     1.49400
Zn325      Zn  0.07081024  0.18169197  0.04272186     1.49100
Zn326      Zn  0.09329582  0.25221542  0.05175460     1.49500
O327        O  0.08454539  0.21857727  0.00447735    -1.82100
O328        O  0.11228300  0.20969478  0.88969033    -0.72700
O329        O  0.01178655  0.20686438  0.96866126    -0.72500
O330        O  0.09768382  0.14412834  0.02340698    -0.72000
O331        O  0.06343422  0.22848998  0.88643470    -0.72700
O332        O  0.13773457  0.16460424  0.97998447    -0.72300
O333        O  0.02530371  0.17196094  0.02697878    -0.72900
O334        O  0.09209772  0.23765114  0.12404526    -0.72300
O335        O  0.03727037  0.27706547  0.97255313    -0.73000
O336        O  0.07436579  0.18866341  0.11926710    -0.72400
O337        O  0.06276303  0.28802452  0.04353393    -0.72900
O338        O  0.13606454  0.26960350  0.03892752    -0.72800
O339        O  0.15814256  0.24069213  0.97893558    -0.72600
C340        C  0.08808790  0.21831548  0.86459713     0.79200
C341        C  0.00487082  0.18380860  0.99714823     0.79700
C342        C  0.12399833  0.14125021  0.00064145     0.78600
C343        C  0.08368027  0.21217346  0.14525814     0.79000
C344        C  0.04294262  0.29549124  0.00933996     0.80200
C345        C  0.15925937  0.26361746  0.01010478     0.79200
Zn346      Zn  0.07787613  0.17703443  0.54725353     1.49700
Zn347      Zn  0.05216738  0.22523181  0.46332422     1.49400
Zn348      Zn  0.09907883  0.24885043  0.54964329     1.49100
Zn349      Zn  0.12528191  0.20415490  0.46191157     1.49500
O350        O  0.08871186  0.21363367  0.50524400    -1.82100
O351        O  0.03258258  0.16327235  0.53558113    -0.72700
O352        O  0.04045397  0.27113396  0.47244673    -0.72500
O353        O  0.09472146  0.23735453  0.62261539    -0.72000
O354        O  0.01407290  0.19951680  0.48260220    -0.72700
O355        O  0.08240119  0.18665034  0.62244094    -0.72300
O356        O  0.07036204  0.28552696  0.53748157    -0.72900
O357        O  0.16104616  0.23595714  0.47345400    -0.72300
O358        O  0.06124407  0.21791337  0.38877064    -0.73000
O359        O  0.14326962  0.26457541  0.53776679    -0.72400
O360        O  0.11245288  0.20695830  0.38788824    -0.72900
O361        O  0.14065777  0.15902041  0.47443167    -0.72800
O362        O  0.10638981  0.14075835  0.53066521    -0.72600
C363        C  0.01001486  0.17534862  0.51030843     0.79200
C364        C  0.04914245  0.29156200  0.50485633     0.79700
C365        C  0.08836221  0.21207103  0.64609758     0.78600
C366        C  0.16455365  0.25823322  0.50543154     0.79000
C367        C  0.08651223  0.21177913  0.36471965     0.80200
C368        C  0.13017107  0.13667913  0.50206168     0.79200
Zn369      Zn  0.33760800  0.44804895  0.04080138     1.49700
Zn370      Zn  0.28869641  0.46720938  0.95346017     1.49400
Zn371      Zn  0.31185734  0.39455450  0.96511437     1.49100
Zn372      Zn  0.26638123  0.42648556  0.04613818     1.49500
O373        O  0.30137112  0.43398560  0.00095104    -1.82100
O374        O  0.34739800  0.49375702  0.02639315    -0.72700
O375        O  0.29804511  0.45298772  0.88218641    -0.72500
O376        O  0.35671207  0.38069211  0.98221558    -0.72000
O377        O  0.31258603  0.50767990  0.96753225    -0.72700
O378        O  0.37600364  0.42199534  0.02378397    -0.72300
O379        O  0.31101828  0.40246750  0.88935170    -0.72900
O380        O  0.24952058  0.38330209  0.03568258    -0.72300
O381        O  0.24203323  0.47787377  0.95874493    -0.73000
O382        O  0.28034915  0.35923140  0.98038749    -0.72400
O383        O  0.23021389  0.45558637  0.03225793    -0.72900
O384        O  0.27900771  0.42980518  0.11914230    -0.72800
O385        O  0.32928570  0.44347165  0.11649758    -0.72600
C386        C  0.33536758  0.51437962  0.99712324     0.79200
C387        C  0.30600032  0.42683414  0.86236454     0.79700
C388        C  0.37969220  0.39529442  0.00272611     0.78600
C389        C  0.25643456  0.35917421  0.00958355     0.79000
C390        C  0.22274818  0.47291186  0.99479456     0.80200
C391        C  0.30472544  0.43620017  0.14163879     0.79200
Zn392      Zn  0.34127746  0.44355375  0.46198834     1.49700
Zn393      Zn  0.29445002  0.46306058  0.55048608     1.49400
Zn394      Zn  0.27063856  0.41983754  0.45905496     1.49100
Zn395      Zn  0.31713655  0.39084742  0.54210423     1.49500
O396        O  0.30603300  0.42911617  0.50366142    -1.82100
O397        O  0.35287729  0.48874701  0.47803759    -0.72700
O398        O  0.24903476  0.47586464  0.54201545    -0.72500
O399        O  0.28220578  0.42363704  0.38548128    -0.72000
O400        O  0.32024504  0.50226088  0.53948009    -0.72700
O401        O  0.33127390  0.44104170  0.38677373    -0.72300
O402        O  0.23517951  0.44978243  0.47256040    -0.72900
O403        O  0.28511495  0.35542322  0.52947759    -0.72300
O404        O  0.30134073  0.44962284  0.62230705    -0.73000
O405        O  0.25369232  0.37614541  0.47089755    -0.72400
O406        O  0.31635504  0.39966509  0.61791741    -0.72900
O407        O  0.36211313  0.37746477  0.52430828    -0.72800
O408        O  0.37905666  0.41613240  0.47482122    -0.72600
C409        C  0.34253918  0.50909481  0.50934800     0.73200
C410        C  0.22913266  0.46955726  0.50739601     0.79700
C411        C  0.30686639  0.43251775  0.36224226     0.78600
C412        C  0.26119443  0.35356673  0.50020871     0.79000
C413        C  0.30982415  0.42416623  0.64364253     0.80200
C414        C  0.38405556  0.39062585  0.49885210     0.79200
Zn415      Zn  0.97906809  0.53525228  0.04783029     1.49700
Zn416      Zn  0.97808252  0.48399827  0.95937960     1.49400
Zn417      Zn  0.03129889  0.53863801  0.95997245     1.49100
Zn418      Zn  0.03225447  0.48541005  0.04391214     1.49500
O419        O  0.00509015  0.51087781  0.00197012    -1.82100
O420        O  0.93347730  0.52847462  0.03418642    -0.72700
O421        O  0.98763318  0.49184951  0.88536358    -0.72500
O422        O  0.02285693  0.58453015  0.97715642    -0.72000
O423        O  0.93199484  0.49533868  0.96903497    -0.72700
O424        O  0.98695071  0.58073328  0.03798107    -0.72300
O425        O  0.02080277  0.53207330  0.88643877    -0.72900
O426        O  0.07736273  0.49175615  0.02699967    -0.72300
O427        O  0.98498998  0.43734607  0.97546251    -0.73000
O428        O  0.07817763  0.52851038  0.96724510    -0.72400
O429        O  0.02272752  0.44067942  0.03343231    -0.72900
O430        O  0.02712059  0.49295015  0.11792440    -0.72800
O431        O  0.98727757  0.52638461  0.12090003    -0.72600
C432        C  0.91826719  0.51316968  0.00087954     0.79200
C433        C  0.00412985  0.51226951  0.86210982     0.79700
C434        C  0.00422440  0.59718846  0.00907927     0.78600
C435        C  0.09233992  0.50900042  0.99603158     0.79000
C436        C  0.00412956  0.42440408  0.00646529     0.80200
C437        C  0.00773406  0.50944165  0.14294640     0.79200
Zn438      Zn  0.98791426  0.53506639  0.45796056     1.49700
Zn439      Zn  0.03981855  0.53606814  0.54523016     1.49400
Zn440      Zn  0.98633848  0.48210287  0.54348049     1.49100
Zn441      Zn  0.03968877  0.48305605  0.45826504     1.49500
O442        O  0.01354237  0.50901095  0.50183587    -1.82100
O443        O  0.99703707  0.58030208  0.46803137    -0.72700
O444        O  0.02867712  0.52955807  0.61892903    -0.72500
O445        O  0.94013912  0.49111211  0.52995928    -0.72000
O446        O  0.03281268  0.58237832  0.52933210    -0.72700
O447        O  0.94245077  0.52880492  0.47181949    -0.72300
O448        O  0.99303729  0.49157271  0.61726123    -0.72900
O449        O  0.03208676  0.43741807  0.47138238    -0.72300
O450        O  0.08610620  0.52554518  0.53638593    -0.73000
O451        O  0.99600683  0.43573747  0.53224019    -0.72400
O452        O  0.08503937  0.49134811  0.47260925    -0.72900
O453        O  0.03199015  0.49026174  0.38409426    -0.72800
O454        O  0.99462259  0.52647961  0.38494466    -0.72600
C455        C  0.01474730  0.59593402  0.49746881     0.79200
C456        C  0.00990655  0.51106702  0.64183452     0.79700
C457        C  0.92672790  0.51095100  0.50086925     0.78600
C458        C  0.01480657  0.42199592  0.50181025     0.79000
C459        C  0.10012062  0.50764802  0.50494102     0.80200
C460        C  0.01299956  0.50835095  0.36093664     0.79200
C461        C  0.02216863  0.53553513  0.77917861     0.25700
C462        C  0.00442972  0.51285104  0.80565324    -0.22500
C463        C  0.98749216  0.49035992  0.77741948     0.20600
C464        C  0.98904890  0.48999069  0.72451436     0.25600
C465        C  0.00754215  0.51208848  0.69812078    -0.22400
C466        C  0.02373055  0.53515758  0.72626700     0.20500
F467        F  0.04117167  0.55756365  0.70282593    -0.12400
F468        F  0.03828994  0.55828984  0.80426502    -0.14700
F469        F  0.97252856  0.46754409  0.69938156    -0.14700
F470        F  0.96951201  0.46834936  0.80076732    -0.12400
C471        C  0.01852514  0.48172200  0.22456545     0.25700
C472        C  0.00913612  0.50904209  0.19861824    -0.22500
C473        C  0.00128571  0.53609993  0.22631432     0.20600
C474        C  0.00280466  0.53588539  0.27906115     0.25600
C475        C  0.01209952  0.50854889  0.30514185    -0.22400
C476        C  0.01997222  0.48146175  0.27741394     0.20500
F477        F  0.02813092  0.45442320  0.30142006    -0.12400
F478        F  0.02539122  0.45495324  0.19885441    -0.14700
F479        F  0.99588244  0.56273440  0.30452251    -0.14700
F480        F  0.99297402  0.56309873  0.20230357    -0.12400
C481        C  0.15132623  0.50086705  0.46089002     0.25700
C482        C  0.13461463  0.50429561  0.50642578    -0.22500
C483        C  0.15046673  0.50025196  0.55278133     0.20600
C484        C  0.18198010  0.49055130  0.55340101     0.25600
C485        C  0.19793404  0.48479662  0.50763172    -0.22400
C486        C  0.18270480  0.49127336  0.46147631     0.20500
F487        F  0.19802227  0.48759173  0.41674954    -0.12400
F488        F  0.13692310  0.50592019  0.41563395    -0.14700
F489        F  0.19604532  0.48447739  0.59859400    -0.14700
F490        F  0.13477880  0.50311636  0.59731616    -0.12400
C491        C  0.17429996  0.49113100  0.94762862     0.25700
C492        C  0.19072697  0.48682322  0.99359693    -0.22500
C493        C  0.17529546  0.49362279  0.03944200     0.20600
C494        C  0.14373161  0.50264277  0.03963667     0.25600
C495        C  0.12685539  0.50534944  0.99407775    -0.22400
C496        C  0.14254134  0.50036495  0.94790756     0.20500
F497        F  0.12653064  0.50205864  0.90341479    -0.12400
F498        F  0.18823515  0.48431485  0.90270540    -0.14700
F499        F  0.12930814  0.50799829  0.08469769    -0.14700
F500        F  0.19062097  0.49094643  0.08443033    -0.12400
C501        C  0.31938685  0.45142497  0.77911809     0.25700
C502        C  0.30938823  0.42494725  0.80661058    -0.22500
C503        C  0.30188234  0.39719776  0.78013448     0.20600
C504        C  0.30304995  0.39645446  0.72705717     0.25600
C505        C  0.31170741  0.42344477  0.69961978    -0.22400
C506        C  0.32053661  0.45067805  0.72626974     0.20500
F507        F  0.33048306  0.47666570  0.70108495    -0.12400
F508        F  0.32833282  0.47808472  0.80344954    -0.14700
F509        F  0.29413933  0.36986907  0.70250100    -0.14700
F510        F  0.29192633  0.37125757  0.80540883    -0.12400
C511        C  0.33031697  0.44943469  0.22540659     0.25700
C512        C  0.30582721  0.43489835  0.19803904    -0.22500
C513        C  0.28211214  0.41906375  0.22526831     0.20600
C514        C  0.28264189  0.41812060  0.27820805     0.25600
C515        C  0.30690451  0.43299474  0.30572523    -0.22400
C516        C  0.33084195  0.44852587  0.27850577     0.20500
F517        F  0.35459166  0.46346237  0.30311883    -0.12400
F518        F  0.35354199  0.46519898  0.20095656    -0.14700
F519        F  0.25936436  0.40220505  0.30232257    -0.14700
F520        F  0.25841684  0.40391921  0.20078857    -0.12400
C521        C  0.03022535  0.33895134  0.45769360     0.25700
C522        C  0.03532364  0.32343714  0.50400241    -0.22500
C523        C  0.02989377  0.33972796  0.54958276     0.20600
C524        C  0.02094167  0.37138467  0.54886388     0.25600
C525        C  0.01802478  0.38745338  0.50258772    -0.22400
C526        C  0.02205073  0.37079969  0.45700608     0.20500
F527        F  0.01894658  0.38565083  0.41172081    -0.12400
F528        F  0.03528668  0.32391068  0.41308451    -0.14700
F529        F  0.01736080  0.38687622  0.59344892    -0.14700
F530        F  0.03402911  0.32517818  0.59491002    -0.12400
C531        C  0.20655015  0.28993698  0.54911900     0.25700
C532        C  0.19304075  0.27852439  0.50393013    -0.22500
C533        C  0.20462961  0.28970407  0.45738721     0.20600
C534        C  0.22776826  0.31322601  0.45614227     0.25600
C535        C  0.24050216  0.32540805  0.50135172    -0.22400
C536        C  0.23033281  0.31282456  0.54782201     0.20500
F537        F  0.24177502  0.32429735  0.59217320    -0.12400
F538        F  0.19609818  0.27951165  0.59471083    -0.14700
F539        F  0.23715201  0.32475169  0.41063934    -0.14700
F540        F  0.19196346  0.27951446  0.41308310    -0.12400
C541        C  0.03035237  0.34553480  0.05518382     0.25700
C542        C  0.02716342  0.32663394  0.01171365    -0.22500
C543        C  0.01046693  0.33878326  0.96969767     0.20600
C544        C  0.00035557  0.37013627  0.96925326     0.25600
C545        C  0.00673867  0.38981867  0.01072976    -0.22400
C546        C  0.02015732  0.37664727  0.05473475     0.20500
F547        F  0.02468361  0.39431122  0.09700086    -0.12400
F548        F  0.04439353  0.33441397  0.09784933    -0.14700
F549        F  0.98640030  0.38170862  0.92686543    -0.14700
F550        F  0.00542375  0.32100883  0.92777357    -0.12400
C551        C  0.21303896  0.32966087  0.05255495     0.25700
C552        C  0.23511243  0.33141496  0.01287567    -0.22500
C553        C  0.23445068  0.30795437  0.97514502     0.20600
C554        C  0.21075783  0.28484129  0.97513673     0.25600
C555        C  0.18726681  0.28473628  0.01287531    -0.22400
C556        C  0.18958154  0.30680841  0.05255606     0.20500
F557        F  0.16863084  0.30698241  0.09137261    -0.12400
F558        F  0.21351078  0.35061566  0.09136456    -0.14700
F559        F  0.21014530  0.26347735  0.93698117    -0.14700
F560        F  0.25576461  0.30814637  0.93690298    -0.12400
C561        C  0.07528603  0.23932246  0.72699162     0.25700
C562        C  0.08758416  0.21282667  0.70202987    -0.22500
C563        C  0.09971708  0.18783945  0.73096967     0.20600
C564        C  0.10043579  0.18980652  0.78397082     0.25600
C565        C  0.08829410  0.21642268  0.80877524    -0.22400
C566        C  0.07530288  0.24093104  0.77983277     0.20500
F567        F  0.06317820  0.26680726  0.80272836    -0.12400
F568        F  0.06268219  0.26350706  0.70016644    -0.14700
F569        F  0.11224514  0.16537952  0.81111368    -0.14700
F570        F  0.11159280  0.16190653  0.70794681    -0.12400
C571        C  0.11050988  0.22334698  0.22769120     0.25700
C572        C  0.08485340  0.21033229  0.20128312    -0.22500
C573        C  0.05983336  0.19723436  0.22898520     0.20600
C574        C  0.06016179  0.19784640  0.28217030     0.25600
C575        C  0.08595245  0.21075596  0.30854353    -0.22400
C576        C  0.11123434  0.22321289  0.28069372     0.20500
F577        F  0.13622893  0.23633950  0.30482852    -0.12400
F578        F  0.13508776  0.23607620  0.20206859    -0.14700
F579        F  0.03540916  0.18553676  0.30787055    -0.14700
F580        F  0.03452118  0.18494611  0.20457429    -0.12400
C581        C  0.84427847  0.52427813  0.54937186     0.25700
C582        C  0.82851374  0.53299764  0.50458032    -0.22500
C583        C  0.84446767  0.53097888  0.45806474     0.20600
C584        C  0.87611757  0.52224699  0.45669868     0.25600
C585        C  0.89225603  0.51475197  0.50166210    -0.22400
C586        C  0.87584593  0.51489558  0.54785341     0.20500
F587        F  0.89091668  0.50808127  0.59192091    -0.12400
F588        F  0.82931477  0.52546359  0.59473884    -0.14700
F589        F  0.89130356  0.52204654  0.41145617    -0.14700
F590        F  0.83006697  0.53948974  0.41417267    -0.12400
C591        C  0.86570863  0.51589098  0.04196752     0.25700
C592        C  0.88410179  0.51811273  0.99802223    -0.22500
C593        C  0.87065452  0.52992549  0.95333935     0.20600
C594        C  0.83969228  0.54105521  0.95330974     0.25600
C595        C  0.82151155  0.54011604  0.99793913    -0.22400
C596        C  0.83454816  0.52641443  0.04184878     0.20500
F597        F  0.81784642  0.52482432  0.08558764    -0.12400
F598        F  0.87831115  0.50441748  0.08552472    -0.14700
F599        F  0.82785164  0.55350051  0.90988797    -0.14700
F600        F  0.88825388  0.53287757  0.91070535    -0.12400
C601        C  0.72920064  0.60853873  0.78036636     0.25700
C602        C  0.70624359  0.59192801  0.80796661    -0.22500
C603        C  0.68395091  0.57386809  0.78120548     0.20600
C604        C  0.68534663  0.57157419  0.72826738     0.25600
C605        C  0.70906325  0.58731093  0.70095276    -0.22400
C606        C  0.73063639  0.60620221  0.72774262     0.20500
F607        F  0.75319776  0.62284145  0.70311345    -0.12400
F608        F  0.75041767  0.62731315  0.80418363    -0.14700
F609        F  0.66403628  0.55314610  0.70404598    -0.14700
F610        F  0.66137731  0.55750569  0.80622393    -0.12400
C611        C  0.72395949  0.56707908  0.28013142     0.25700
C612        C  0.71987584  0.59457541  0.30912754    -0.22500
C613        C  0.71595247  0.62338726  0.28334963     0.20600
C614        C  0.71521422  0.62442482  0.23014981     0.25600
C615        C  0.71839897  0.59667402  0.20133963    -0.22400
C616        C  0.72323110  0.56810396  0.22731823     0.20500
F617        F  0.72687166  0.54063438  0.20183995    -0.12400
F618        F  0.72824978  0.53870262  0.30264716    -0.14700
F619        F  0.71164087  0.65272074  0.20706139    -0.14700
F620        F  0.71311954  0.65073909  0.30942264    -0.12400
C621        C  0.00208957  0.67899299  0.54177310     0.25700
C622        C  0.99192522  0.69349231  0.49675072    -0.22500
C623        C  0.99445364  0.67713809  0.45072527     0.20600
C624        C  0.00427108  0.64579675  0.45042760     0.25600
C625        C  0.01219434  0.63050817  0.49606474    -0.22400
C626        C  0.01251601  0.64783601  0.54136702     0.20500
F627        F  0.02041758  0.63392935  0.58590796    -0.12400
F628        F  0.00092983  0.69471235  0.58648385    -0.14700
F629        F  0.00465371  0.62994474  0.40576878    -0.14700
F630        F  0.98508396  0.69064812  0.40656808    -0.12400
C631        C  0.80985269  0.73231970  0.47427076     0.25700
C632        C  0.83067485  0.73558351  0.51561652    -0.22500
C633        C  0.82553234  0.71701175  0.55901547     0.20600
C634        C  0.80191126  0.69415824  0.55963553     0.25600
C635        C  0.78267796  0.68910955  0.51685911    -0.22400
C636        C  0.78609923  0.70930797  0.47488472     0.20500
F637        F  0.76788340  0.70549489  0.43303248    -0.12400
F638        F  0.81367584  0.74995948  0.43187088    -0.14700
F639        F  0.79841746  0.67638838  0.60201332    -0.14700
F640        F  0.84387550  0.72044043  0.60084638    -0.12400
C641        C  0.00250592  0.64981723  0.96703379     0.25700
C642        C  0.00068378  0.63167594  0.01141875    -0.22500
C643        C  0.99104682  0.64611185  0.05684739     0.20600
C644        C  0.98117759  0.67742077  0.05704082     0.25600
C645        C  0.98096283  0.69494075  0.01188999    -0.22400
C646        C  0.99273618  0.68118620  0.96726587     0.20500
F647        F  0.99268571  0.69737240  0.92292693    -0.12400
F648        F  0.01136100  0.63658897  0.92248409    -0.14700
F649        F  0.97140160  0.69044614  0.10127611    -0.14700
F650        F  0.99038722  0.62963530  0.10092886    -0.12400
C651        C  0.81279115  0.73242995  0.95029039     0.25700
C652        C  0.82193493  0.74681713  0.99589549    -0.22500
C653        C  0.80514955  0.73971870  0.04037503     0.20600
C654        C  0.78105763  0.71714371  0.03998440     0.25600
C655        C  0.77385933  0.70055380  0.99529456    -0.22400
C656        C  0.78922674  0.70931839  0.95004435     0.20500
F657        F  0.78235306  0.69456544  0.90577479    -0.12400
F658        F  0.82843847  0.73882629  0.90667389    -0.14700
F659        F  0.76655704  0.70982496  0.08422096    -0.14700
F660        F  0.81294188  0.75385541  0.08475780    -0.12400
C661        C  0.94780098  0.77785133  0.78135319     0.25700
C662        C  0.93628414  0.80425849  0.80738202    -0.22500
C663        C  0.92648004  0.83067163  0.77955456     0.20600
C664        C  0.92796935  0.83066605  0.72654658     0.25600
C665        C  0.93856441  0.80391323  0.70029345    -0.22400
C666        C  0.94854714  0.77750302  0.72830118     0.20500
F667        F  0.95938544  0.75142116  0.70435737    -0.12400
F668        F  0.95743839  0.75198847  0.80726723    -0.14700
F669        F  0.91810384  0.85650778  0.70087222    -0.14700
F670        F  0.91592758  0.85673694  0.80381956    -0.12400
C671        C  0.94661318  0.78660653  0.22530142     0.25700
C672        C  0.92674121  0.80769530  0.19996279    -0.22500
C673        C  0.90619636  0.82674748  0.22806240     0.20600
C674        C  0.90564219  0.82471336  0.28115987     0.25600
C675        C  0.92613879  0.80399841  0.30678568    -0.22400
C676        C  0.94657106  0.78493536  0.27809725     0.20500
F677        F  0.96625652  0.76418130  0.30106584    -0.12400
F678        F  0.96643990  0.76779763  0.19871900    -0.14700
F679        F  0.88558477  0.84343493  0.30741210    -0.14700
F680        F  0.88623724  0.84675266  0.20403654    -0.12400
C681        C  0.16430102  0.09554860  0.45982415     0.25700
C682        C  0.14524205  0.10497549  0.50077106    -0.22500
C683        C  0.13951748  0.08314849  0.53993810     0.20600
C684        C  0.15167175  0.05262975  0.53758714     0.25600
C685        C  0.17004476  0.04290396  0.49609171    -0.22400
C686        C  0.17656687  0.06493008  0.45754214     0.20500
F687        F  0.19419481  0.05669645  0.41679444    -0.12400
F688        F  0.17040296  0.11560733  0.42106461    -0.14700
F689        F  0.14581820  0.03277730  0.57674349    -0.14700
F690        F  0.12232918  0.09132405  0.58121207    -0.12400
C691        C  0.09396175  0.86393756  0.44864169     0.25700
C692        C  0.10806193  0.87528320  0.49319926    -0.22500
C693        C  0.09127129  0.87353241  0.53902304     0.20600
C694        C  0.06080225  0.86108162  0.54022556     0.25600
C695        C  0.04636022  0.85022195  0.49552461    -0.22400
C696        C  0.06337313  0.85160127  0.44972950     0.20500
F697        F  0.05002636  0.84197593  0.40560888    -0.12400
F698        F  0.10926945  0.86601673  0.40365825    -0.14700
F699        F  0.04574988  0.85895895  0.58543814    -0.14700
F700        F  0.10467218  0.88334156  0.58301006    -0.12400
C701        C  0.18221795  0.07432683  0.01485454     0.25700
C702        C  0.16511119  0.04875888  0.99459317    -0.22500
C703        C  0.13487235  0.05457152  0.97437910     0.20600
C704        C  0.12169669  0.08470642  0.97632081     0.25600
C705        C  0.13857491  0.10982977  0.99745074    -0.22400
C706        C  0.16914577  0.10458506  0.01576423     0.20500
F707        F  0.18601074  0.12863003  0.03593547    -0.12400
F708        F  0.21171109  0.07021711  0.03360782    -0.14700
F709        F  0.09251564  0.08950870  0.95671154    -0.14700
F710        F  0.11765177  0.03104403  0.95344001    -0.12400
C711        C  0.22813426  0.91229017  0.77283477     0.25700
C712        C  0.20641735  0.93169441  0.79821662    -0.22500
C713        C  0.18462363  0.94913391  0.76942698     0.20600
C714        C  0.18540626  0.94809516  0.71639825     0.25600
C715        C  0.20801127  0.92958138  0.69113931    -0.22400
C716        C  0.22892923  0.91126427  0.72010607     0.20500
F717        F  0.25022035  0.89204089  0.69752884    -0.12400
F718        F  0.24869278  0.89396923  0.79900328    -0.14700
F719        F  0.16469797  0.96608396  0.68995315    -0.14700
F720        F  0.16327308  0.96810602  0.79238325    -0.12400
C721        C  0.20945283  0.90404186  0.21671188     0.25700
C722        C  0.21499550  0.93237482  0.19042768    -0.22500
C723        C  0.22127940  0.95970148  0.21889822     0.20600
C724        C  0.22215824  0.95869580  0.27185397     0.25600
C725        C  0.21676351  0.93033658  0.29816260    -0.22400
C726        C  0.21033098  0.90303618  0.26971918     0.20500
F727        F  0.20513679  0.87505557  0.29295530    -0.12400
F728        F  0.20344524  0.87695277  0.19131778    -0.14700
F729        F  0.22815480  0.98582263  0.29716182    -0.14700
F730        F  0.22650540  0.98770931  0.19574116    -0.12400
C731        C  0.07514762  0.90173843  0.99172283     0.25700
C732        C  0.10230342  0.88350569  0.00132222    -0.22500
C733        C  0.09843725  0.85141744  0.01324692     0.20600
C734        C  0.06833799  0.83793484  0.01485597     0.25600
C735        C  0.04142270  0.85630875  0.00580876    -0.22400
C736        C  0.04507286  0.88832043  0.99449654     0.20500
F737        F  0.01948538  0.90641258  0.98440180    -0.12400
F738        F  0.07754998  0.93271192  0.98002201    -0.14700
F739        F  0.06543405  0.80692094  0.02598912    -0.14700
F740        F  0.12379573  0.83280788  0.02228776    -0.12400
C741        C  0.55057180  0.62967875  0.48938549     0.25700
C742        C  0.54577571  0.66140716  0.50257361    -0.22500
C743        C  0.57212394  0.67973149  0.51632611     0.20600
C744        C  0.60247567  0.66690077  0.51566093     0.25600
C745        C  0.60717071  0.63533291  0.50238689    -0.22400
C746        C  0.58092709  0.61670118  0.48990028     0.20500
F747        F  0.58475123  0.58599234  0.47735017    -0.12400
F748        F  0.52583756  0.61095951  0.47711810    -0.14700
F749        F  0.62725297  0.68511120  0.52958932    -0.14700
F750        F  0.56866082  0.71031109  0.52983823    -0.12400
C751        C  0.31347329  0.78585874  0.54287659     0.25700
C752        C  0.32836052  0.77699768  0.49746125    -0.22500
C753        C  0.31759864  0.79031581  0.45165369     0.20600
C754        C  0.29367930  0.81308671  0.45150402     0.25600
C755        C  0.28047105  0.82363887  0.49724678    -0.22400
C756        C  0.29010163  0.80925128  0.54282757     0.20500
F757        F  0.27750195  0.81854649  0.58762279    -0.12400
F758        F  0.32308451  0.77355673  0.58778403    -0.14700
F759        F  0.28516388  0.82653559  0.40688285    -0.14700
F760        F  0.33096961  0.78197408  0.40694654    -0.12400
C761        C  0.35676841  0.59561701  0.54133432     0.25700
C762        C  0.38216615  0.60319831  0.50931558    -0.22500
C763        C  0.39475200  0.57919425  0.47837169     0.20600
C764        C  0.38214052  0.54888499  0.47888840     0.25600
C765        C  0.35647497  0.54134038  0.51027277    -0.22400
C766        C  0.34410029  0.56514957  0.54184829     0.20500
F767        F  0.31951924  0.55919463  0.57320056    -0.12400
F768        F  0.34401743  0.61760928  0.57240264    -0.14700
F769        F  0.39534463  0.52694343  0.44820857    -0.14700
F770        F  0.41938264  0.58481991  0.44695226    -0.12400
C771        C  0.56534446  0.68803567  0.02239300     0.25700
C772        C  0.53931796  0.66883562  0.01057693    -0.22500
C773        C  0.54444736  0.63679218  0.00077049     0.20600
C774        C  0.57489118  0.62429958  0.00186921     0.25600
C775        C  0.60109701  0.64359772  0.01242957    -0.22400
C776        C  0.59588519  0.67557159  0.02327985     0.20500
F777        F  0.62039529  0.69511113  0.03310569    -0.12400
F778        F  0.56141702  0.71920735  0.03137896    -0.14700
F779        F  0.57856621  0.59305477  0.99329976    -0.14700
F780        F  0.51988020  0.61728318  0.99108752    -0.12400
C781        C  0.29459198  0.82358951  0.94709342     0.25700
C782        C  0.27644865  0.83054730  0.99025798    -0.22500
C783        C  0.28035478  0.81169623  0.03379855     0.20600
C784        C  0.30354259  0.78805442  0.03525375     0.25600
C785        C  0.32322833  0.78280101  0.99317779    -0.22400
C786        C  0.31754517  0.80009816  0.94850244     0.20500
F787        F  0.33482789  0.79486373  0.90607880    -0.12400
F788        F  0.29072274  0.84010175  0.90345989    -0.14700
F789        F  0.30802917  0.77179986  0.07891989    -0.14700
F790        F  0.26321143  0.81744446  0.07613687    -0.12400
C791        C  0.45790713  0.70226397  0.72530283     0.25700
C792        C  0.43366299  0.71683057  0.69754483    -0.22500
C793        C  0.40891141  0.73147284  0.72367889     0.20600
C794        C  0.40821575  0.73131389  0.77666532     0.25600
C795        C  0.43187647  0.71579443  0.80453570    -0.22400
C796        C  0.45680232  0.70136843  0.77834339     0.20500
F797        F  0.48054440  0.68714904  0.80412466    -0.12400
F798        F  0.48231658  0.68827467  0.70100818    -0.14700
F799        F  0.38406156  0.74592165  0.80070437    -0.14700
F800        F  0.38576036  0.74661928  0.69785455    -0.12400
C801        C  0.41058840  0.68837692  0.22476862     0.25700
C802        C  0.42499991  0.71310985  0.19795847    -0.22500
C803        C  0.44231478  0.73575146  0.22512022     0.20600
C804        C  0.44483368  0.73401669  0.27776114     0.25600
C805        C  0.43064894  0.70931674  0.30455705    -0.22400
C806        C  0.41373123  0.68629100  0.27770521     0.20500
F807        F  0.39953300  0.66235677  0.30283747    -0.12400
F808        F  0.39416309  0.66586396  0.19968906    -0.14700
F809        F  0.46160702  0.75637545  0.30267838    -0.14700
F810        F  0.45645816  0.76003352  0.20073672    -0.12400
C811        C  0.34126978  0.60364646  0.99411740     0.25700
C812        C  0.37396964  0.60819559  0.99847452    -0.22500
C813        C  0.39367528  0.58171728  0.00254919     0.20600
C814        C  0.38102896  0.55137641  0.00262061     0.25600
C815        C  0.34842606  0.54671262  0.99740202    -0.22400
C816        C  0.32864234  0.57315364  0.99287897     0.20500
F817        F  0.29701079  0.56950364  0.98844338    -0.12400
F818        F  0.32161442  0.62867285  0.98986856    -0.14700
F819        F  0.40083961  0.52645272  0.00668194    -0.14700
F820        F  0.42529030  0.58522041  0.00763062    -0.12400
C821        C  0.50491957  0.83557968  0.53455429     0.25700
C822        C  0.49048559  0.82168217  0.49200427    -0.22500
C823        C  0.48835254  0.83912953  0.44678931     0.20600
C824        C  0.49765033  0.87054807  0.44549480     0.25600
C825        C  0.50934513  0.88533549  0.48934362    -0.22400
C826        C  0.51426672  0.86715451  0.53322860     0.20500
F827        F  0.52594175  0.88043985  0.57606728    -0.12400
F828        F  0.50807542  0.81935950  0.57856990    -0.14700
F829        F  0.49424507  0.88679435  0.40151158    -0.14700
F830        F  0.47644773  0.82606004  0.40389966    -0.12400
C831        C  0.37618517  0.99284097  0.54755370     0.25700
C832        C  0.39101744  0.00017701  0.50155270    -0.22500
C833        C  0.37363040  0.99899600  0.45631995     0.20600
C834        C  0.34219660  0.98947155  0.45666365     0.25600
C835        C  0.32773632  0.98023991  0.50225189    -0.22400
C836        C  0.34484546  0.98265930  0.54789540     0.20500
F837        F  0.33147420  0.97457157  0.59273115    -0.12400
F838        F  0.39266001  0.99340617  0.59168038    -0.14700
F839        F  0.32656955  0.98746728  0.41185861    -0.14700
F840        F  0.38745848  0.00618531  0.41143854    -0.12400
C841        C  0.50444010  0.87084671  0.95750512     0.25700
C842        C  0.50340286  0.88886859  0.00213095    -0.22500
C843        C  0.49355834  0.87458469  0.04756369     0.20600
C844        C  0.48318778  0.84349878  0.04781347     0.25600
C845        C  0.48205486  0.82626410  0.00255888    -0.22400
C846        C  0.49348221  0.83983294  0.95763818     0.20500
F847        F  0.49340785  0.82324290  0.91370267    -0.12400
F848        F  0.51393490  0.88384264  0.91310678    -0.14700
F849        F  0.47215147  0.83098867  0.09166735    -0.14700
F850        F  0.49283281  0.89113437  0.09153769    -0.12400
C851        C  0.37233893  0.00110325  0.94459879     0.25700
C852        C  0.38827414  0.00531068  0.99078727    -0.22500
C853        C  0.37162211  0.00167963  0.03644138     0.20600
C854        C  0.33990288  0.99300914  0.03604416     0.25600
C855        C  0.32431648  0.98715985  0.98995244    -0.22400
C856        C  0.34070296  0.99179438  0.94417019     0.20500
F857        F  0.32631265  0.98660395  0.89896960    -0.12400
F858        F  0.38796085  0.00378944  0.89997403    -0.14700
F859        F  0.32508529  0.98828336  0.08094657    -0.14700
F860        F  0.38640512  0.00555582  0.08168110    -0.12400
C861        C  0.52813932  0.98117280  0.77255506     0.25700
C862        C  0.51340625  0.00590791  0.79902990    -0.22500
C863        C  0.49919613  0.03027026  0.77102762     0.20600
C864        C  0.49960116  0.02996674  0.71821369     0.25600
C865        C  0.51422316  0.00523930  0.69162272    -0.22400
C866        C  0.52853495  0.98086029  0.71950100     0.20500
F867        F  0.54247814  0.95627924  0.69560798    -0.12400
F868        F  0.54171028  0.95688228  0.79781059    -0.14700
F869        F  0.48593137  0.05434692  0.69329522    -0.14700
F870        F  0.48514576  0.05492782  0.79456481    -0.12400
C871        C  0.48165830  0.00244085  0.27192144     0.25700
C872        C  0.50838627  0.01253668  0.29893642    -0.22500
C873        C  0.53465154  0.02367208  0.27190424     0.20600
C874        C  0.53442430  0.02414641  0.21904081     0.25600
C875        C  0.50790480  0.01353802  0.19199475    -0.22400
C876        C  0.48141999  0.00293525  0.21902909     0.20500
F877        F  0.45501542  0.99340854  0.19436896    -0.12400
F878        F  0.45547751  0.99249630  0.29661725    -0.14700
F879        F  0.56067058  0.03401532  0.19443792    -0.14700
F880        F  0.56110126  0.03315031  0.29648611    -0.12400
C881        C  0.45297861  0.33453234  0.52033747     0.25700
C882        C  0.47820525  0.35078406  0.49751673    -0.22500
C883        C  0.47193221  0.37988209  0.47416745     0.20600
C884        C  0.44150461  0.39254413  0.47416905     0.25600
C885        C  0.41628102  0.37648569  0.49752566    -0.22400
C886        C  0.42251033  0.34716820  0.52031667     0.20500
F887        F  0.39914164  0.33044482  0.54267450    -0.12400
F888        F  0.45755584  0.30607351  0.54243107    -0.14700
F889        F  0.43707427  0.42092520  0.45173330    -0.14700
F890        F  0.49537223  0.39664624  0.45205577    -0.12400
C891        C  0.53725163  0.17482937  0.45738110     0.25700
C892        C  0.53633493  0.19226161  0.50269531    -0.22500
C893        C  0.52325596  0.17815902  0.54623422     0.20600
C894        C  0.51366880  0.14651900  0.54518274     0.25600
C895        C  0.51705935  0.12861877  0.50063262    -0.22400
C896        C  0.52779973  0.14355891  0.45641539     0.20500
F897        F  0.52998960  0.12758922  0.41200467    -0.12400
F898        F  0.54798463  0.18779543  0.41367097    -0.14700
F899        F  0.50301112  0.13296013  0.58843908    -0.14700
F900        F  0.52132214  0.19432299  0.59045169    -0.12400
C901        C  0.62535114  0.43776520  0.49478625     0.25700
C902        C  0.64491657  0.41101257  0.49523353    -0.22500
C903        C  0.67779268  0.41526801  0.49507194     0.20600
C904        C  0.69074181  0.44563151  0.49436279     0.25600
C905        C  0.67106466  0.47224303  0.49519576    -0.22400
C906        C  0.63828905  0.46797745  0.49535414     0.20500
F907        F  0.61868342  0.49318859  0.49513121    -0.12400
F908        F  0.59353573  0.43473953  0.49503687    -0.14700
F909        F  0.72251456  0.44902636  0.49431603    -0.14700
F910        F  0.69739379  0.39007049  0.49463729    -0.12400
C911        C  0.41657011  0.34997647  0.01638006     0.25700
C912        C  0.41160050  0.38129690  0.00164901    -0.22500
C913        C  0.43750471  0.39948067  0.98638359     0.20600
C914        C  0.46784521  0.38656979  0.98549536     0.25600
C915        C  0.47310455  0.35525685  0.00091869    -0.22400
C916        C  0.44700778  0.33716274  0.01659171     0.20500
F917        F  0.45076953  0.30686122  0.03152026    -0.12400
F918        F  0.39201658  0.33200538  0.03191906    -0.14700
F919        F  0.49211931  0.40501145  0.97026320    -0.14700
F920        F  0.43331304  0.42968850  0.97119939    -0.12400
C921        C  0.51573367  0.14880758  0.03347690     0.25700
C922        C  0.51479762  0.13159937  0.98806954    -0.22500
C923        C  0.52178652  0.14689714  0.94228842     0.20600
C924        C  0.53141615  0.17843064  0.94232929     0.25600
C925        C  0.53365531  0.19536727  0.98813578    -0.22400
C926        C  0.52468611  0.18042871  0.03350808     0.20500
F927        F  0.52649296  0.19576437  0.07852071    -0.12400
F928        F  0.50891717  0.13462090  0.07823423    -0.14700
F929        F  0.53925736  0.19214800  0.89765569    -0.14700
F930        F  0.52149672  0.13071421  0.89796569    -0.12400
C931        C  0.56468866  0.32437940  0.77166744     0.25700
C932        C  0.59056419  0.31471540  0.80090321    -0.22500
C933        C  0.61827438  0.30503554  0.77636129     0.20600
C934        C  0.61981960  0.30416993  0.72338726     0.25600
C935        C  0.59334173  0.31215247  0.69400020    -0.22400
C936        C  0.56592140  0.32279448  0.71870357     0.20500
F937        F  0.54018902  0.33155355  0.69156043    -0.12400
F938        F  0.53765408  0.33382973  0.79441797    -0.14700
F939        F  0.64674210  0.29412549  0.70098781    -0.14700
F940        F  0.64385631  0.29623139  0.80383475    -0.12400
C941        C  0.56567823  0.28521713  0.22166198     0.25700
C942        C  0.58765103  0.30342469  0.19430777    -0.22500
C943        C  0.60997801  0.32121202  0.22172960     0.20600
C944        C  0.60990788  0.32120065  0.27481730     0.25600
C945        C  0.58801737  0.30303277  0.30160112    -0.22400
C946        C  0.56612944  0.28482046  0.27473655     0.20500
F947        F  0.54478048  0.26702465  0.30002674    -0.12400
F948        F  0.54396879  0.26735713  0.19722088    -0.14700
F949        F  0.63174376  0.33839960  0.30018766    -0.14700
F950        F  0.63173910  0.33897387  0.19734941    -0.12400
C951        C  0.62494800  0.44219853  0.97410556     0.25700
C952        C  0.63830222  0.41760853  0.00302968    -0.22500
C953        C  0.66474033  0.42468766  0.03342424     0.20600
C954        C  0.67711563  0.45532603  0.03521625     0.25600
C955        C  0.66348138  0.47992655  0.00664662    -0.22400
C956        C  0.63727174  0.47271534  0.97591214     0.20500
F957        F  0.62322412  0.49521186  0.94722270    -0.12400
F958        F  0.59975044  0.43695978  0.94355043    -0.14700
F959        F  0.70270113  0.46067739  0.06486801    -0.14700
F960        F  0.67880218  0.40202095  0.06172471    -0.12400
C961        C  0.88764646  0.96609985  0.48246262     0.25700
C962        C  0.85582136  0.97129841  0.49482966    -0.22500
C963        C  0.83704582  0.94531264  0.50853381     0.20600
C964        C  0.84988359  0.91499160  0.51024156     0.25600
C965        C  0.88184947  0.91010477  0.49938644    -0.22400
C966        C  0.90057865  0.93587595  0.48533065     0.20500
F967        F  0.93136299  0.93166248  0.47335622    -0.12400
F968        F  0.90654033  0.99035759  0.46872317    -0.14700
F969        F  0.83126783  0.89049818  0.52390744    -0.14700
F970        F  0.80609371  0.94912774  0.51968178    -0.12400
C971        C  0.68005963  0.02756338  0.44194323     0.25700
C972        C  0.69748591  0.02927851  0.48725201    -0.22500
C973        C  0.68329111  0.01932564  0.53276274     0.20600
C974        C  0.65169920  0.01002692  0.53342849     0.25600
C975        C  0.63374907  0.01056076  0.48869230    -0.22400
C976        C  0.64851831  0.01834079  0.44269233     0.20500
F977        F  0.63210842  0.01786644  0.39847818    -0.12400
F978        F  0.69330677  0.03549621  0.39693131    -0.14700
F979        F  0.63804988  0.00300060  0.57850206    -0.14700
F980        F  0.69922059  0.02073485  0.57734174    -0.12400
C981        C  0.72422604  0.19583656  0.44496526     0.25700
C982        C  0.74166851  0.18824166  0.48869889    -0.22500
C983        C  0.73682144  0.20626267  0.53285927     0.20600
C984        C  0.71358739  0.22987490  0.53407168     0.25600
C985        C  0.69476306  0.23595359  0.49112471    -0.22400
C986        C  0.70121602  0.21933110  0.44612742     0.20500
F987        F  0.68469635  0.22532550  0.40308728    -0.12400
F988        F  0.72896014  0.18002862  0.40093555    -0.14700
F989        F  0.70817499  0.24526827  0.57823466    -0.14700
F990        F  0.75305921  0.19967617  0.57591586    -0.12400
C991        C  0.92132354  0.16705629  0.51648409     0.25700
C992        C  0.91723605  0.13463195  0.50804989    -0.22500
C993        C  0.94419386  0.11540103  0.50414572     0.20600
C994        C  0.97441847  0.12846760  0.50691189     0.25600
C995        C  0.97832540  0.16104639  0.51255633    -0.22400
C996        C  0.95154938  0.18014004  0.51810791     0.20500
F997        F  0.95469441  0.21155570  0.52547531    -0.12400
F998        F  0.89607437  0.18635289  0.52155642    -0.14700
F999        F  0.99986780  0.10940615  0.50200003    -0.14700
F1000       F  0.94136883  0.08385922  0.49786036    -0.12400
C1001       C  0.88916684  0.94001225  0.02917069     0.25700
C1002       C  0.87798676  0.91610174  0.99674284    -0.22500
C1003       C  0.85371534  0.92357602  0.96227174     0.20600
C1004       C  0.84122058  0.95402839  0.96004587     0.25600
C1005       C  0.85260696  0.97795162  0.99223476    -0.22400
C1006       C  0.87671772  0.97038579  0.02692034     0.20500
F1007       F  0.88832648  0.99227710  0.05936707    -0.12400
F1008       F  0.91224750  0.93422786  0.06359838    -0.14700
F1009       F  0.81793874  0.95992525  0.92603856    -0.14700
F1010       F  0.84198444  0.90151928  0.93026035    -0.12400
C1011       C  0.68203863  0.01721578  0.96123417     0.25700
C1012       C  0.69446711  0.03427061  0.00256871    -0.22500
C1013       C  0.67574733  0.03819780  0.04604478     0.20600
C1014       C  0.64463001  0.02798269  0.04648019     0.25600
C1015       C  0.63125046  0.01373646  0.00340555    -0.22400
C1016       C  0.65066427  0.00704478  0.96168009     0.20500
F1017       F  0.63882700  0.99260461  0.91993821    -0.12400
F1018       F  0.69956015  0.01184028  0.91914721    -0.14700
F1019       F  0.62721508  0.03310173  0.08879744    -0.14700
F1020       F  0.68712940  0.05281484  0.08797656    -0.12400
C1021       C  0.72307016  0.20460919  0.04324799     0.25700
C1022       C  0.73701294  0.19435370  0.99765079    -0.22500
C1023       C  0.72857730  0.20956815  0.95222067     0.20600
C1024       C  0.70529144  0.23298761  0.95201843     0.25600
C1025       C  0.69060586  0.24234633  0.99734324    -0.22400
C1026       C  0.70036473  0.22856351  0.04311605     0.20500
F1027       F  0.68621456  0.23661395  0.08733815    -0.12400
F1028       F  0.73077239  0.19080944  0.08798132    -0.14700
F1029       F  0.69636559  0.24592470  0.90720251    -0.14700
F1030       F  0.74126508  0.20033405  0.90746667    -0.12400
C1031       C  0.80145018  0.06102626  0.77060886     0.25700
C1032       C  0.80237551  0.09003160  0.79643968    -0.22500
C1033       C  0.80405746  0.11787610  0.76768420     0.20600
C1034       C  0.80465685  0.11673536  0.71468154     0.25600
C1035       C  0.80363320  0.08772055  0.68890457    -0.22400
C1036       C  0.80206175  0.05988478  0.71769714     0.20500
F1037       F  0.80156363  0.03129978  0.69487088    -0.12400
F1038       F  0.80044377  0.03342772  0.79640784    -0.14700
F1039       F  0.80571960  0.14427698  0.68874253    -0.14700
F1040       F  0.80456904  0.14640696  0.79064585    -0.12400
C1041       C  0.83483297  0.07163709  0.21491888     0.25700
C1042       C  0.81313022  0.09118978  0.18950215    -0.22500
C1043       C  0.79370284  0.11107916  0.21830370     0.20600
C1044       C  0.79471501  0.11028849  0.27115100     0.25600
C1045       C  0.81516160  0.08955662  0.29669578    -0.22400
C1046       C  0.83583152  0.07083352  0.26800307     0.20500
F1047       F  0.85603416  0.05067041  0.29114994    -0.12400
F1048       F  0.85421306  0.05226082  0.18855747    -0.14700
F1049       F  0.77561156  0.13002539  0.29734719    -0.14700
F1050       F  0.77370802  0.13154998  0.19536159    -0.12400
C1051       C  0.94899496  0.18370043  0.96389504     0.25700
C1052       C  0.97242629  0.17065574  0.99564595    -0.22500
C1053       C  0.96440700  0.14488407  0.02641149     0.20600
C1054       C  0.93421360  0.13215559  0.02490281     0.25600
C1055       C  0.91090751  0.14465616  0.99241389    -0.22400
C1056       C  0.91863509  0.17085564  0.96230179     0.20500
F1057       F  0.89699315  0.18402837  0.93090015    -0.12400
F1058       F  0.95526138  0.20896935  0.93414394    -0.14700
F1059       F  0.92800253  0.10748194  0.05596239    -0.14700
F1060       F  0.98573746  0.13169656  0.05835967    -0.12400
loop_ 
_geom_bond_atom_site_label_1 
_geom_bond_atom_site_label_2 
_geom_bond_distance 
_geom_bond_site_symmetry_2 
_ccdc_geom_bond_type 
Zn1           O5   1.944   1_554  S
Zn1           O6   2.015       .  S
Zn1          O10   2.009       .  S
Zn1          O17   2.014       .  S
Zn2           O5   1.948   1_554  S
Zn2           O7   2.015       .  S
Zn2           O9   2.011       .  S
Zn2          O13   1.980       .  S
Zn3           O5   1.960       .  S
Zn3           O8   2.008       .  S
Zn3          O11   2.019       .  S
Zn3          O14   2.003       .  S
Zn4           O5   1.976       .  S
Zn4          O12   2.040       .  S
Zn4          O15   2.052       .  S
Zn4          O16   2.062       .  S
O6           C18   1.273       .  A
O7           C19   1.272   1_554  A
O8           C20   1.272       .  A
O9           C18   1.271       .  A
O10          C20   1.274   1_554  A
O11          C19   1.272       .  A
O12          C21   1.277       .  A
O13          C22   1.271   1_554  A
O14          C21   1.273       .  A
O15          C22   1.278       .  A
O16          C23   1.279       .  A
O17          C23   1.273   1_554  A
C18        C1042   1.484       .  S
C19        C1005   1.492   1_545  S
C20        C1012   1.484   1_556  S
C21        C1032   1.490       .  S
C22        C1055   1.489       .  S
C23        C1022   1.491       .  S
Zn24         O28   1.960       .  S
Zn24         O29   2.019       .  S
Zn24         O33   2.013       .  S
Zn24         O40   2.017       .  S
Zn25         O28   1.966       .  S
Zn25         O30   2.040       .  S
Zn25         O32   2.034       .  S
Zn25         O36   2.022       .  S
Zn26         O28   1.945       .  S
Zn26         O31   2.016       .  S
Zn26         O34   2.000       .  S
Zn26         O37   2.015       .  S
Zn27         O28   1.970       .  S
Zn27         O35   2.055       .  S
Zn27         O38   2.035       .  S
Zn27         O39   2.015       .  S
O29          C41   1.274       .  A
O30          C42   1.276       .  A
O31          C43   1.274       .  A
O32          C41   1.275       .  A
O33          C43   1.272       .  A
O34          C42   1.273       .  A
O35          C44   1.277       .  A
O36          C45   1.276       .  A
O37          C44   1.273       .  A
O38          C45   1.277       .  A
O39          C46   1.274       .  A
O40          C46   1.274       .  A
C41         C962   1.488   1_545  S
C42        C1045   1.484       .  S
C43         C972   1.482       .  S
C44         C982   1.493       .  S
C45         C992   1.487       .  S
C46        C1035   1.489       .  S
Zn47         O51   1.979   1_554  S
Zn47         O52   2.062       .  S
Zn47         O56   2.033       .  S
Zn47         O63   2.063       .  S
Zn48         O51   1.959       .  S
Zn48         O53   2.027       .  S
Zn48         O55   2.008       .  S
Zn48         O59   2.004       .  S
Zn49         O51   1.968   1_554  S
Zn49         O54   2.026       .  S
Zn49         O57   2.027       .  S
Zn49         O60   2.032       .  S
Zn50         O51   1.965       .  S
Zn50         O58   2.035       .  S
Zn50         O61   2.039       .  S
Zn50         O62   2.026       .  S
O52          C64   1.278   1_554  A
O53          C65   1.274       .  A
O54          C66   1.275       .  A
O55          C64   1.272       .  A
O56          C66   1.276       .  A
O57          C65   1.275   1_554  A
O58          C67   1.276   1_556  A
O59          C68   1.272       .  A
O60          C67   1.275       .  A
O61          C68   1.275       .  A
O62          C69   1.276   1_556  A
O63          C69   1.280       .  A
C64        C1025   1.484       .  S
C65         C925   1.487       .  S
C66         C942   1.492       .  S
C67         C915   1.493       .  S
C68         C932   1.476       .  S
C69         C952   1.503       .  S
Zn70         O74   1.940       .  S
Zn70         O75   2.004       .  S
Zn70         O79   2.015       .  S
Zn70         O86   1.990       .  S
Zn71         O74   1.981       .  S
Zn71         O76   2.055       .  S
Zn71         O78   2.072       .  S
Zn71         O82   2.046       .  S
Zn72         O74   1.960       .  S
Zn72         O77   2.032       .  S
Zn72         O80   2.012       .  S
Zn72         O83   2.036       .  S
Zn73         O74   1.971       .  S
Zn73         O81   2.015       .  S
Zn73         O84   2.010       .  S
Zn73         O85   2.042       .  S
O75          C87   1.273       .  A
O76          C88   1.279       .  A
O77          C89   1.274       .  A
O78          C87   1.279       .  A
O79          C89   1.272       .  A
O80          C88   1.275       .  A
O81          C90   1.273       .  A
O82          C91   1.278       .  A
O83          C90   1.276       .  A
O84          C91   1.274       .  A
O85          C92   1.274       .  A
O86          C92   1.271       .  A
C87         C985   1.494       .  S
C88         C902   1.487       .  S
C89         C945   1.474       .  S
C90         C882   1.493       .  S
C91         C935   1.484       .  S
C92         C892   1.487       .  S
Zn93         O97   1.982   1_565  S
Zn93         O98   2.043       .  S
Zn93        O102   2.021       .  S
Zn93        O109   2.037       .  S
Zn94         O97   1.936   1_554  S
Zn94         O99   1.992       .  S
Zn94        O101   1.975       .  S
Zn94        O105   2.000       .  S
Zn95         O97   1.966       .  S
Zn95        O100   2.007       .  S
Zn95        O103   2.052       .  S
Zn95        O106   2.048       .  S
Zn96         O97   1.938   1_564  S
Zn96        O104   1.984       .  S
Zn96        O107   1.996       .  S
Zn96        O108   1.980       .  S
O98         C110   1.276   1_566  A
O99         C111   1.271   1_554  A
O100        C112   1.274       .  A
O101        C110   1.270       .  A
O102        C112   1.274   1_565  A
O103        C111   1.277       .  A
O104        C113   1.270   1_564  A
O105        C114   1.270       .  A
O106        C113   1.277       .  A
O107        C114   1.269   1_565  A
O108        C115   1.270       .  A
O109        C115   1.275   1_556  A
C110       C1015   1.480       .  S
C111        C922   1.478       .  S
C112        C862   1.486       .  S
C113        C852   1.477       .  S
C114        C875   1.478       .  S
C115        C842   1.476       .  S
Zn116       O120   1.933       .  S
Zn116       O121   1.984       .  S
Zn116       O125   1.982       .  S
Zn116       O132   1.996       .  S
Zn117       O120   1.975   1_565  S
Zn117       O122   2.025       .  S
Zn117       O124   2.039       .  S
Zn117       O128   2.037       .  S
Zn118       O120   1.971       .  S
Zn118       O123   2.049       .  S
Zn118       O126   1.997       .  S
Zn118       O129   2.035       .  S
Zn119       O120   1.941   1_565  S
Zn119       O127   1.990       .  S
Zn119       O130   1.994       .  S
Zn119       O131   2.004       .  S
O121        C133   1.270       .  A
O122        C134   1.275   1_565  A
O123        C135   1.276       .  A
O124        C133   1.276   1_565  A
O125        C135   1.271       .  A
O126        C134   1.272       .  A
O127        C136   1.271   1_565  A
O128        C137   1.276       .  A
O129        C136   1.275       .  A
O130        C137   1.272       .  A
O131        C138   1.271   1_565  A
O132        C138   1.270       .  A
C133        C975   1.477       .  S
C134        C865   1.486       .  S
C135        C895   1.482       .  S
C136        C832   1.471       .  S
C137        C825   1.482       .  S
C138        C872   1.478       .  S
Zn139       O143   1.986       .  S
Zn139       O144   2.076       .  S
Zn139       O148   2.060       .  S
Zn139       O155   2.050       .  S
Zn140       O143   1.945   1_556  S
Zn140       O145   2.009       .  S
Zn140       O147   1.994       .  S
Zn140       O151   1.996       .  S
Zn141       O143   1.953       .  S
Zn141       O146   1.992       .  S
Zn141       O149   2.004       .  S
Zn141       O152   2.008       .  S
Zn142       O143   1.960   1_556  S
Zn142       O150   2.031       .  S
Zn142       O153   2.043       .  S
Zn142       O154   2.020       .  S
O144        C156   1.280   1_554  A
O145        C157   1.271   1_556  A
O146        C158   1.272       .  A
O147        C156   1.272       .  A
O148        C158   1.278       .  A
O149        C157   1.271       .  A
O150        C159   1.275   1_556  A
O151        C160   1.270       .  A
O152        C159   1.271       .  A
O153        C160   1.276       .  A
O154        C161   1.276       .  A
O155        C161   1.279   1_554  A
C156        C785   1.493       .  S
C157        C845   1.471       .  S
C158        C802   1.483       .  S
C159        C772   1.484       .  S
C160        C795   1.480       .  S
C161        C812   1.484       .  S
Zn162       O166   1.967       .  S
Zn162       O167   2.046       .  S
Zn162       O171   1.998       .  S
Zn162       O178   2.045       .  S
Zn163       O166   1.947       .  S
Zn163       O168   2.015       .  S
Zn163       O170   1.996       .  S
Zn163       O174   2.000       .  S
Zn164       O166   1.979       .  S
Zn164       O169   2.059       .  S
Zn164       O172   2.066       .  S
Zn164       O175   2.030       .  S
Zn165       O166   1.971       .  S
Zn165       O173   2.019       .  S
Zn165       O176   2.028       .  S
Zn165       O177   2.014       .  S
O167        C179   1.275       .  A
O168        C180   1.273       .  A
O169        C181   1.280       .  A
O170        C179   1.271       .  A
O171        C181   1.273       .  A
O172        C180   1.278       .  A
O173        C182   1.274       .  A
O174        C183   1.272       .  A
O175        C182   1.276       .  A
O176        C183   1.274       .  A
O177        C184   1.273       .  A
O178        C184   1.276       .  A
C179        C805   1.477       .  S
C180        C752   1.491       .  S
C181        C762   1.496       .  S
C182        C792   1.477       .  S
C183        C822   1.484       .  S
C184        C742   1.489       .  S
Zn185       O189   1.966       .  S
Zn185       O190   2.026       .  S
Zn185       O194   2.032       .  S
Zn185       O201   2.029       .  S
Zn186       O189   1.972   1_554  S
Zn186       O191   2.055       .  S
Zn186       O193   2.042       .  S
Zn186       O197   2.022       .  S
Zn187       O189   1.944       .  S
Zn187       O192   1.986       .  S
Zn187       O195   2.005       .  S
Zn187       O198   2.011       .  S
Zn188       O189   1.961   1_554  S
Zn188       O196   2.027       .  S
Zn188       O199   2.020       .  S
Zn188       O200   2.029   1_565  S
O190        C202   1.276       .  A
O191        C203   1.277   1_554  A
O192        C204   1.271       .  A
O193        C202   1.278   1_554  A
O194        C204   1.275       .  A
O195        C203   1.272       .  A
O196        C205   1.274   1_554  A
O197        C206   1.275       .  A
O198        C205   1.272       .  A
O199        C206   1.275       .  A
O200        C207   1.275   1_554  A
O201        C207   1.275   1_565  A
C202        C732   1.493   1_556  S
C203        C782   1.492       .  S
C204        C712   1.482       .  S
C205        C855   1.481       .  S
C206        C722   1.492       .  S
C207        C702   1.493       .  S
Zn208       O212   1.958       .  S
Zn208       O213   2.009       .  S
Zn208       O217   2.005       .  S
Zn208       O224   2.028       .  S
Zn209       O212   1.956       .  S
Zn209       O214   2.020       .  S
Zn209       O216   2.003       .  S
Zn209       O220   2.017       .  S
Zn210       O212   1.973       .  S
Zn210       O215   2.051       .  S
Zn210       O218   2.066       .  S
Zn210       O221   2.033       .  S
Zn211       O212   1.961       .  S
Zn211       O219   2.012       .  S
Zn211       O222   2.010       .  S
Zn211       O223   2.027   1_565  S
O213        C225   1.271       .  A
O214        C226   1.273       .  A
O215        C227   1.279       .  A
O216        C225   1.272       .  A
O217        C227   1.274       .  A
O218        C226   1.279       .  A
O219        C228   1.274       .  A
O220        C229   1.274       .  A
O221        C228   1.276       .  A
O222        C229   1.273       .  A
O223        C230   1.273       .  A
O224        C230   1.275   1_565  A
C225        C715   1.482       .  S
C226        C755   1.489       .  S
C227        C692   1.480       .  S
C228        C725   1.493       .  S
C229        C835   1.480       .  S
C230        C685   1.492       .  S
Zn231       O235   1.966       .  S
Zn231       O236   2.006       .  S
Zn231       O240   2.043       .  S
Zn231       O247   2.040       .  S
Zn232       O235   1.973   1_556  S
Zn232       O237   2.031       .  S
Zn232       O239   2.040       .  S
Zn232       O243   2.059       .  S
Zn233       O235   1.966   1_556  S
Zn233       O238   2.020   1_655  S
Zn233       O241   2.018       .  S
Zn233       O244   2.001       .  S
Zn234       O235   1.956       .  S
Zn234       O242   2.017       .  S
Zn234       O245   2.018       .  S
Zn234       O246   2.000       .  S
O236        C248   1.273   1_554  A
O237        C249   1.275       .  A
O238        C250   1.273   1_556  A
O239        C248   1.277       .  A
O240        C250   1.276   1_655  A
O241        C249   1.273       .  A
O242        C251   1.273       .  A
O243        C252   1.278       .  A
O244        C251   1.271   1_556  A
O245        C252   1.274   1_554  A
O246        C253   1.271       .  A
O247        C253   1.275       .  A
C248       C1002   1.493       .  S
C249        C662   1.478       .  S
C250        C735   1.480       .  S
C251        C645   1.477       .  S
C252        C652   1.485       .  S
C253        C672   1.471       .  S
Zn254       O258   1.957       .  S
Zn254       O259   1.996       .  S
Zn254       O263   2.013       .  S
Zn254       O270   2.012   1_655  S
Zn255       O258   1.977       .  S
Zn255       O260   2.053       .  S
Zn255       O262   2.043       .  S
Zn255       O266   2.033       .  S
Zn256       O258   1.949       .  S
Zn256       O261   2.009       .  S
Zn256       O264   2.015       .  S
Zn256       O267   2.011       .  S
Zn257       O258   1.959       .  S
Zn257       O265   2.038       .  S
Zn257       O268   2.024       .  S
Zn257       O269   2.035       .  S
O259        C271   1.272       .  A
O260        C272   1.278       .  A
O261        C273   1.272       .  A
O262        C271   1.276       .  A
O263        C273   1.272       .  A
O264        C272   1.275       .  A
O265        C274   1.276       .  A
O266        C275   1.277       .  A
O267        C274   1.272       .  A
O268        C275   1.276       .  A
O269        C276   1.276   1_655  A
O270        C276   1.272       .  A
C271        C675   1.484       .  S
C272        C632   1.492       .  S
C273        C622   1.473       .  S
C274        C665   1.484       .  S
C275        C965   1.478       .  S
C276        C695   1.485       .  S
Zn277       O281   1.962   1_556  S
Zn277       O282   2.008       .  S
Zn277       O286   2.035       .  S
Zn277       O293   2.031       .  S
Zn278       O281   1.984       .  S
Zn278       O283   2.047       .  S
Zn278       O285   2.051       .  S
Zn278       O289   2.068       .  S
Zn279       O281   1.961       .  S
Zn279       O284   2.038       .  S
Zn279       O287   2.006       .  S
Zn279       O290   2.011       .  S
Zn280       O281   1.949   1_556  S
Zn280       O288   2.006       .  S
Zn280       O291   2.010       .  S
Zn280       O292   1.991       .  S
O282        C294   1.275   1_556  A
O283        C295   1.277       .  A
O284        C296   1.274       .  A
O285        C294   1.280       .  A
O286        C296   1.275   1_556  A
O287        C295   1.274       .  A
O288        C297   1.272       .  A
O289        C298   1.279   1_554  A
O290        C297   1.272   1_554  A
O291        C298   1.272       .  A
O292        C299   1.271       .  A
O293        C299   1.274       .  A
C294        C775   1.488       .  S
C295        C615   1.494       .  S
C296        C955   1.502       .  S
C297        C595   1.482       .  S
C298        C655   1.492       .  S
C299        C602   1.485       .  S
Zn300       O304   1.954       .  S
Zn300       O305   2.034       .  S
Zn300       O309   2.010       .  S
Zn300       O316   2.010       .  S
Zn301       O304   1.960       .  S
Zn301       O306   2.033       .  S
Zn301       O308   2.023       .  S
Zn301       O312   2.012       .  S
Zn302       O304   1.945       .  S
Zn302       O307   2.015       .  S
Zn302       O310   1.995       .  S
Zn302       O313   2.005       .  S
Zn303       O304   1.977       .  S
Zn303       O311   2.056       .  S
Zn303       O314   2.048       .  S
Zn303       O315   2.039       .  S
O305        C317   1.274       .  A
O306        C318   1.275       .  A
O307        C319   1.273       .  A
O308        C317   1.274       .  A
O309        C319   1.272       .  A
O310        C318   1.272       .  A
O311        C320   1.277       .  A
O312        C321   1.273       .  A
O313        C320   1.273       .  A
O314        C321   1.279       .  A
O315        C322   1.276       .  A
O316        C322   1.275       .  A
C317        C905   1.481       .  S
C318        C605   1.486       .  S
C319        C582   1.476       .  S
C320        C635   1.491       .  S
C321        C745   1.480       .  S
C322        C612   1.493       .  S
Zn323       O327   1.973   1_556  S
Zn323       O328   2.034       .  S
Zn323       O332   2.031       .  S
Zn323       O339   2.056       .  S
Zn324       O327   1.961   1_556  S
Zn324       O329   2.000       .  S
Zn324       O331   2.003       .  S
Zn324       O335   2.008       .  S
Zn325       O327   1.956       .  S
Zn325       O330   2.030       .  S
Zn325       O333   2.020       .  S
Zn325       O336   2.048       .  S
Zn326       O327   1.935       .  S
Zn326       O334   2.007       .  S
Zn326       O337   2.012       .  S
Zn326       O338   1.992       .  S
O328        C340   1.276       .  A
O329        C341   1.271       .  A
O330        C342   1.276       .  A
O331        C340   1.272       .  A
O332        C342   1.276   1_556  A
O333        C341   1.275   1_554  A
O334        C343   1.272       .  A
O335        C344   1.271   1_556  A
O336        C343   1.276       .  A
O337        C344   1.273       .  A
O338        C345   1.272       .  A
O339        C345   1.277   1_556  A
C340        C565   1.476       .  S
C341       C1052   1.489   1_455  S
C342        C705   1.476   1_554  S
C343        C572   1.482       .  S
C344        C542   1.487       .  S
C345        C555   1.493       .  S
Zn346       O350   1.967       .  S
Zn346       O351   2.035       .  S
Zn346       O355   2.035       .  S
Zn346       O362   2.011       .  S
Zn347       O350   1.968       .  S
Zn347       O352   2.030       .  S
Zn347       O354   2.020       .  S
Zn347       O358   2.030       .  S
Zn348       O350   1.953       .  S
Zn348       O353   1.996       .  S
Zn348       O356   2.006       .  S
Zn348       O359   2.019       .  S
Zn349       O350   1.973       .  S
Zn349       O357   2.058       .  S
Zn349       O360   2.031       .  S
Zn349       O361   2.055       .  S
O351        C363   1.275       .  A
O352        C364   1.274       .  A
O353        C365   1.271       .  A
O354        C363   1.274       .  A
O355        C365   1.275       .  A
O356        C364   1.272       .  A
O357        C366   1.278       .  A
O358        C367   1.275       .  A
O359        C366   1.274       .  A
O360        C367   1.276       .  A
O361        C368   1.279       .  A
O362        C368   1.274       .  A
C363        C995   1.479   1_455  S
C364        C522   1.478       .  S
C365        C562   1.477       .  S
C366        C532   1.488       .  S
C367        C575   1.484       .  S
C368        C682   1.494       .  S
Zn369       O373   1.957       .  S
Zn369       O374   2.026       .  S
Zn369       O378   2.023       .  S
Zn369       O385   2.039       .  S
Zn370       O373   1.964   1_556  S
Zn370       O375   2.017       .  S
Zn370       O377   2.034       .  S
Zn370       O381   2.039       .  S
Zn371       O373   1.978   1_556  S
Zn371       O376   2.044       .  S
Zn371       O379   2.028       .  S
Zn371       O382   2.054       .  S
Zn372       O373   1.934       .  S
Zn372       O380   1.992       .  S
Zn372       O383   2.006       .  S
Zn372       O384   2.004       .  S
O374        C386   1.275   1_554  A
O375        C387   1.276       .  A
O376        C388   1.277   1_556  A
O377        C386   1.275       .  A
O378        C388   1.275       .  A
O379        C387   1.276       .  A
O380        C389   1.271       .  A
O381        C390   1.274       .  A
O382        C389   1.276   1_556  A
O383        C390   1.273   1_554  A
O384        C391   1.272       .  A
O385        C391   1.276       .  A
C386        C815   1.484       .  S
C387        C502   1.481       .  S
C388        C912   1.481       .  S
C389        C552   1.492       .  S
C390        C492   1.484       .  S
C391        C512   1.490       .  S
Zn392       O396   1.959       .  S
Zn392       O397   2.030       .  S
Zn392       O401   2.032       .  S
Zn392       O408   2.012       .  S
Zn393       O396   1.965       .  S
Zn393       O398   2.017       .  S
Zn393       O400   2.018       .  S
Zn393       O404   2.001       .  S
Zn394       O396   1.949       .  S
Zn394       O399   2.011       .  S
Zn394       O402   2.005       .  S
Zn394       O405   2.019       .  S
Zn395       O396   1.975       .  S
Zn395       O403   2.058       .  S
Zn395       O406   2.036       .  S
Zn395       O407   2.049       .  S
O397        C409   1.276       .  A
O398        C410   1.273       .  A
O399        C411   1.273       .  A
O400        C409   1.272       .  A
O401        C411   1.275       .  A
O402        C410   1.273       .  A
O403        C412   1.278       .  A
O404        C413   1.273       .  A
O405        C412   1.274       .  A
O406        C413   1.275       .  A
O407        C414   1.279       .  A
O408        C414   1.275       .  A
C409        C765   1.495       .  S
C410        C485   1.476       .  S
C411        C515   1.492       .  S
C412        C535   1.487       .  S
C413        C505   1.480       .  S
C414        C885   1.496       .  S
Zn415       O419   1.941   1_655  S
Zn415       O420   1.991       .  S
Zn415       O424   1.982       .  S
Zn415       O431   1.995       .  S
Zn416       O419   1.972   1_656  S
Zn416       O421   2.024       .  S
Zn416       O423   2.033       .  S
Zn416       O427   2.051       .  S
Zn417       O419   1.967   1_556  S
Zn417       O422   2.037       .  S
Zn417       O425   2.010       .  S
Zn417       O428   2.046       .  S
Zn418       O419   1.930       .  S
Zn418       O426   1.987       .  S
Zn418       O429   1.966       .  S
Zn418       O430   1.992       .  S
O420        C432   1.270       .  A
O421        C433   1.275   1_655  A
O422        C434   1.276   1_556  A
O423        C432   1.275   1_556  A
O424        C434   1.270   1_655  A
O425        C433   1.274       .  A
O426        C435   1.270   1_554  A
O427        C436   1.277   1_656  A
O428        C435   1.275       .  A
O429        C436   1.269       .  A
O430        C437   1.269       .  A
O431        C437   1.269   1_655  A
C432        C592   1.469   1_554  S
C433        C462   1.490       .  S
C434        C642   1.477       .  S
C435        C495   1.476       .  S
C436        C545   1.480       .  S
C437        C472   1.471       .  S
Zn438       O442   1.936   1_655  S
Zn438       O443   1.982       .  S
Zn438       O447   1.985       .  S
Zn438       O454   1.983       .  S
Zn439       O442   1.970       .  S
Zn439       O444   2.022       .  S
Zn439       O446   2.037       .  S
Zn439       O450   2.031       .  S
Zn440       O442   1.965   1_655  S
Zn440       O445   2.031       .  S
Zn440       O448   2.009       .  S
Zn440       O451   2.037       .  S
Zn441       O442   1.945       .  S
Zn441       O449   1.999       .  S
Zn441       O452   1.995       .  S
Zn441       O453   2.008       .  S
O443        C455   1.269   1_655  A
O444        C456   1.274       .  A
O445        C457   1.275       .  A
O446        C455   1.275       .  A
O447        C457   1.270       .  A
O448        C456   1.274   1_655  A
O449        C458   1.272       .  A
O450        C459   1.275       .  A
O451        C458   1.276   1_655  A
O452        C459   1.272       .  A
O453        C460   1.271       .  A
O454        C460   1.268   1_655  A
C455        C625   1.476       .  S
C456        C465   1.490       .  S
C457        C585   1.474       .  S
C458        C525   1.477       .  S
C459        C482   1.473       .  S
C460        C475   1.473       .  S
C461        C462   1.411       .  A
C461        C466   1.398       .  A
C461        F468   1.358       .  S
C462        C463   1.410   1_455  A
C463        C464   1.398       .  A
C463        F470   1.358       .  S
C464        C465   1.410   1_655  A
C464        F469   1.358       .  S
C465        C466   1.410       .  A
C466        F467   1.358       .  S
C471        C472   1.406       .  A
C471        C476   1.396       .  A
C471        F478   1.358       .  S
C472        C473   1.405       .  A
C473        C474   1.394       .  A
C473        F480   1.358   1_455  S
C474        C475   1.408       .  A
C474        F479   1.358   1_455  S
C475        C476   1.406       .  A
C476        F477   1.358       .  S
C481        C482   1.405       .  A
C481        C486   1.394       .  A
C481        F488   1.358       .  S
C482        C483   1.406       .  A
C483        C484   1.401       .  A
C483        F490   1.358       .  S
C484        C485   1.408       .  A
C484        F489   1.358       .  S
C485        C486   1.406       .  A
C486        F487   1.358       .  S
C491        C492   1.411       .  A
C491        C496   1.405       .  A
C491        F498   1.358       .  S
C492        C493   1.407   1_556  A
C493        C494   1.395       .  A
C493        F500   1.358       .  S
C494        C495   1.404   1_554  A
C494        F499   1.358       .  S
C495        C496   1.406       .  A
C496        F497   1.358       .  S
C501        C502   1.406       .  A
C501        C506   1.396       .  A
C501        F508   1.358       .  S
C502        C503   1.409       .  A
C503        C504   1.402       .  A
C503        F510   1.358       .  S
C504        C505   1.407       .  A
C504        F509   1.358       .  S
C505        C506   1.407       .  A
C506        F507   1.358       .  S
C511        C512   1.409       .  A
C511        C516   1.402       .  A
C511        F518   1.358       .  S
C512        C513   1.410       .  A
C513        C514   1.398       .  A
C513        F520   1.358       .  S
C514        C515   1.410       .  A
C514        F519   1.358       .  S
C515        C516   1.411       .  A
C516        F517   1.358       .  S
C521        C522   1.405       .  A
C521        C526   1.399       .  A
C521        F528   1.358       .  S
C522        C523   1.408       .  A
C523        C524   1.400       .  A
C523        F530   1.358       .  S
C524        C525   1.405       .  A
C524        F529   1.358       .  S
C525        C526   1.407       .  A
C526        F527   1.358       .  S
C531        C532   1.409       .  A
C531        C536   1.404       .  A
C531        F538   1.358       .  S
C532        C533   1.407       .  A
C533        C534   1.404       .  A
C533        F540   1.358       .  S
C534        C535   1.409       .  A
C534        F539   1.358       .  S
C535        C536   1.407       .  A
C536        F537   1.358       .  S
C541        C542   1.408       .  A
C541        C546   1.393       .  A
C541        F548   1.358       .  S
C542        C543   1.413   1_554  A
C543        C544   1.402       .  A
C543        F550   1.357       .  S
C544        C545   1.405   1_556  A
C544        F549   1.358   1_455  S
C545        C546   1.409       .  A
C546        F547   1.359       .  S
C551        C552   1.409       .  A
C551        C556   1.393       .  A
C551        F558   1.359       .  S
C552        C553   1.411   1_554  A
C553        C554   1.408       .  A
C553        F560   1.357       .  S
C554        C555   1.411   1_556  A
C554        F559   1.357       .  S
C555        C556   1.411       .  A
C556        F557   1.359       .  S
C561        C562   1.407       .  A
C561        C566   1.396       .  A
C561        F568   1.358       .  S
C562        C563   1.406       .  A
C563        C564   1.402       .  A
C563        F570   1.358       .  S
C564        C565   1.407       .  A
C564        F569   1.358       .  S
C565        C566   1.405       .  A
C566        F567   1.358       .  S
C571        C572   1.407       .  A
C571        C576   1.399       .  A
C571        F578   1.358       .  S
C572        C573   1.407       .  A
C573        C574   1.404       .  A
C573        F580   1.358       .  S
C574        C575   1.409       .  A
C574        F579   1.358       .  S
C575        C576   1.407       .  A
C576        F577   1.358       .  S
C581        C582   1.407       .  A
C581        C586   1.400       .  A
C581        F588   1.358       .  S
C582        C583   1.406       .  A
C583        C584   1.396       .  A
C583        F590   1.358       .  S
C584        C585   1.406       .  A
C584        F589   1.358       .  S
C585        C586   1.406       .  A
C586        F587   1.358       .  S
C591        C592   1.403   1_554  A
C591        C596   1.398       .  A
C591        F598   1.358       .  S
C592        C593   1.403       .  A
C593        C594   1.398       .  A
C593        F600   1.358       .  S
C594        C595   1.410       .  A
C594        F599   1.358       .  S
C595        C596   1.410   1_556  A
C596        F597   1.358       .  S
C601        C602   1.409       .  A
C601        C606   1.394       .  A
C601        F608   1.358       .  S
C602        C603   1.409       .  A
C603        C604   1.402       .  A
C603        F610   1.358       .  S
C604        C605   1.410       .  A
C604        F609   1.357       .  S
C605        C606   1.409       .  A
C606        F607   1.359       .  S
C611        C612   1.409       .  A
C611        C616   1.395       .  A
C611        F618   1.358       .  S
C612        C613   1.412       .  A
C613        C614   1.405       .  A
C613        F620   1.358       .  S
C614        C615   1.412       .  A
C614        F619   1.358       .  S
C615        C616   1.411       .  A
C616        F617   1.358       .  S
C621        C622   1.406   1_455  A
C621        C626   1.398       .  A
C621        F628   1.358       .  S
C622        C623   1.405       .  A
C623        C624   1.397   1_655  A
C623        F630   1.358       .  S
C624        C625   1.409       .  A
C624        F629   1.359       .  S
C625        C626   1.405       .  A
C626        F627   1.358       .  S
C631        C632   1.411       .  A
C631        C636   1.407       .  A
C631        F638   1.357       .  S
C632        C633   1.409       .  A
C633        C634   1.398       .  A
C633        F640   1.358       .  S
C634        C635   1.409       .  A
C634        F639   1.358       .  S
C635        C636   1.410       .  A
C636        F637   1.358       .  S
C641        C642   1.405   1_556  A
C641        C646   1.398   1_455  A
C641        F648   1.358       .  S
C642        C643   1.409   1_455  A
C643        C644   1.397       .  A
C643        F650   1.359       .  S
C644        C645   1.406       .  A
C644        F649   1.358       .  S
C645        C646   1.408   1_554  A
C646        F647   1.358       .  S
C651        C652   1.405       .  A
C651        C656   1.404       .  A
C651        F658   1.358       .  S
C652        C653   1.408   1_556  A
C653        C654   1.404       .  A
C653        F660   1.358       .  S
C654        C655   1.408   1_554  A
C654        F659   1.357       .  S
C655        C656   1.412       .  A
C656        F657   1.358       .  S
C661        C662   1.406       .  A
C661        C666   1.401       .  A
C661        F668   1.358       .  S
C662        C663   1.405       .  A
C663        C664   1.401       .  A
C663        F670   1.358       .  S
C664        C665   1.407       .  A
C664        F669   1.357       .  S
C665        C666   1.410       .  A
C666        F667   1.358       .  S
C671        C672   1.401       .  A
C671        C676   1.395       .  A
C671        F678   1.358       .  S
C672        C673   1.404       .  A
C673        C674   1.404       .  A
C673        F680   1.358       .  S
C674        C675   1.411       .  A
C674        F679   1.358       .  S
C675        C676   1.410       .  A
C676        F677   1.358       .  S
C681        C682   1.410       .  A
C681        C686   1.405       .  A
C681        F688   1.358       .  S
C682        C683   1.411       .  A
C683        C684   1.399       .  A
C683        F690   1.358       .  S
C684        C685   1.408       .  A
C684        F689   1.358       .  S
C685        C686   1.411       .  A
C686        F687   1.358       .  S
C691        C692   1.405       .  A
C691        C696   1.402       .  A
C691        F698   1.358       .  S
C692        C693   1.407       .  A
C693        C694   1.399       .  A
C693        F700   1.358       .  S
C694        C695   1.407       .  A
C694        F699   1.358       .  S
C695        C696   1.411       .  A
C696        F697   1.358       .  S
C701        C702   1.414   1_554  A
C701        C706   1.403       .  A
C701        F708   1.358       .  S
C702        C703   1.412       .  A
C703        C704   1.400       .  A
C703        F710   1.358       .  S
C704        C705   1.403       .  A
C704        F709   1.358       .  S
C705        C706   1.403   1_556  A
C706        F707   1.358       .  S
C711        C712   1.409       .  A
C711        C716   1.393       .  A
C711        F718   1.358       .  S
C712        C713   1.408       .  A
C713        C714   1.401       .  A
C713        F720   1.358       .  S
C714        C715   1.411       .  A
C714        F719   1.358       .  S
C715        C716   1.407       .  A
C716        F717   1.358       .  S
C721        C722   1.411       .  A
C721        C726   1.400       .  A
C721        F728   1.358       .  S
C722        C723   1.410       .  A
C723        C724   1.399       .  A
C723        F730   1.358       .  S
C724        C725   1.411       .  A
C724        F729   1.358       .  S
C725        C726   1.410       .  A
C726        F727   1.358       .  S
C731        C732   1.413   1_556  A
C731        C736   1.402       .  A
C731        F738   1.358       .  S
C732        C733   1.411       .  A
C733        C734   1.403       .  A
C733        F740   1.358       .  S
C734        C735   1.405       .  A
C734        F739   1.358       .  S
C735        C736   1.403   1_554  A
C736        F737   1.358       .  S
C741        C742   1.410       .  A
C741        C746   1.403       .  A
C741        F748   1.358       .  S
C742        C743   1.412       .  A
C743        C744   1.400       .  A
C743        F750   1.358       .  S
C744        C745   1.403       .  A
C744        F749   1.358       .  S
C745        C746   1.407       .  A
C746        F747   1.358       .  S
C751        C752   1.408       .  A
C751        C756   1.406       .  A
C751        F758   1.358       .  S
C752        C753   1.410       .  A
C753        C754   1.404       .  A
C753        F760   1.358       .  S
C754        C755   1.406       .  A
C754        F759   1.358       .  S
C755        C756   1.410       .  A
C756        F757   1.358       .  S
C761        C762   1.409       .  A
C761        C766   1.404       .  A
C761        F768   1.358       .  S
C762        C763   1.414       .  A
C763        C764   1.397       .  A
C763        F770   1.358       .  S
C764        C765   1.408       .  A
C764        F769   1.358       .  S
C765        C766   1.414       .  A
C766        F767   1.358       .  S
C771        C772   1.410       .  A
C771        C776   1.402       .  A
C771        F778   1.358       .  S
C772        C773   1.405       .  A
C773        C774   1.399       .  A
C773        F780   1.358   1_554  S
C774        C775   1.411       .  A
C774        F779   1.358   1_554  S
C775        C776   1.408       .  A
C776        F777   1.358       .  S
C781        C782   1.408       .  A
C781        C786   1.397       .  A
C781        F788   1.359       .  S
C782        C783   1.411   1_556  A
C783        C784   1.408       .  A
C783        F790   1.357       .  S
C784        C785   1.409   1_554  A
C784        F789   1.357       .  S
C785        C786   1.410       .  A
C786        F787   1.359       .  S
C791        C792   1.407       .  A
C791        C796   1.401       .  A
C791        F798   1.358       .  S
C792        C793   1.405       .  A
C793        C794   1.399       .  A
C793        F800   1.358       .  S
C794        C795   1.409       .  A
C794        F799   1.358       .  S
C795        C796   1.407       .  A
C796        F797   1.358       .  S
C801        C802   1.409       .  A
C801        C806   1.406       .  A
C801        F808   1.357       .  S
C802        C803   1.408       .  A
C803        C804   1.395       .  A
C803        F810   1.358       .  S
C804        C805   1.404       .  A
C804        F809   1.358       .  S
C805        C806   1.407       .  A
C806        F807   1.358       .  S
C811        C812   1.407       .  A
C811        C816   1.405       .  A
C811        F818   1.358       .  S
C812        C813   1.408   1_556  A
C813        C814   1.399       .  A
C813        F820   1.358       .  S
C814        C815   1.406   1_554  A
C814        F819   1.358       .  S
C815        C816   1.409       .  A
C816        F817   1.358       .  S
C821        C822   1.409       .  A
C821        C826   1.402       .  A
C821        F828   1.358       .  S
C822        C823   1.408       .  A
C823        C824   1.395       .  A
C823        F830   1.358       .  S
C824        C825   1.408       .  A
C824        F829   1.358       .  S
C825        C826   1.408       .  A
C826        F827   1.358       .  S
C831        C832   1.404   1_565  A
C831        C836   1.401       .  A
C831        F838   1.358       .  S
C832        C833   1.404   1_545  A
C833        C834   1.396       .  A
C833        F840   1.358   1_565  S
C834        C835   1.408       .  A
C834        F839   1.358       .  S
C835        C836   1.410       .  A
C836        F837   1.358       .  S
C841        C842   1.407   1_556  A
C841        C846   1.400       .  A
C841        F848   1.358       .  S
C842        C843   1.409       .  A
C843        C844   1.395       .  A
C843        F850   1.358       .  S
C844        C845   1.403       .  A
C844        F849   1.358       .  S
C845        C846   1.406   1_554  A
C846        F847   1.358       .  S
C851        C852   1.405       .  A
C851        C856   1.402   1_545  A
C851        F858   1.358       .  S
C852        C853   1.407   1_556  A
C853        C854   1.398   1_545  A
C853        F860   1.358       .  S
C854        C855   1.406   1_554  A
C854        F859   1.358       .  S
C855        C856   1.410       .  A
C856        F857   1.358       .  S
C861        C862   1.411   1_565  A
C861        C866   1.401       .  A
C861        F868   1.358       .  S
C862        C863   1.408       .  A
C863        C864   1.394       .  A
C863        F870   1.358       .  S
C864        C865   1.410       .  A
C864        F869   1.358       .  S
C865        C866   1.409   1_545  A
C866        F867   1.358       .  S
C871        C872   1.407       .  A
C871        C876   1.396       .  A
C871        F878   1.358   1_545  S
C872        C873   1.408       .  A
C873        C874   1.395       .  A
C873        F880   1.358       .  S
C874        C875   1.407       .  A
C874        F879   1.358       .  S
C875        C876   1.408       .  A
C876        F877   1.358   1_545  S
C881        C882   1.412       .  A
C881        C886   1.402       .  A
C881        F888   1.358       .  S
C882        C883   1.408       .  A
C883        C884   1.400       .  A
C883        F890   1.358       .  S
C884        C885   1.414       .  A
C884        F889   1.358       .  S
C885        C886   1.410       .  A
C886        F887   1.358       .  S
C891        C892   1.408       .  A
C891        C896   1.391       .  A
C891        F898   1.358       .  S
C892        C893   1.411       .  A
C893        C894   1.407       .  A
C893        F900   1.358       .  S
C894        C895   1.409       .  A
C894        F899   1.358       .  S
C895        C896   1.406       .  A
C896        F897   1.359       .  S
C901        C902   1.410       .  A
C901        C906   1.399       .  A
C901        F908   1.358       .  S
C902        C903   1.409       .  A
C903        C904   1.405       .  A
C903        F910   1.358       .  S
C904        C905   1.408       .  A
C904        F909   1.358       .  S
C905        C906   1.404       .  A
C906        F907   1.358       .  S
C911        C912   1.404       .  A
C911        C916   1.403       .  A
C911        F918   1.358       .  S
C912        C913   1.405   1_554  A
C913        C914   1.401       .  A
C913        F920   1.358       .  S
C914        C915   1.411   1_556  A
C914        F919   1.358       .  S
C915        C916   1.413       .  A
C916        F917   1.358       .  S
C921        C922   1.405   1_554  A
C921        C926   1.399       .  A
C921        F928   1.358       .  S
C922        C923   1.405       .  A
C923        C924   1.403       .  A
C923        F930   1.358       .  S
C924        C925   1.411       .  A
C924        F929   1.358       .  S
C925        C926   1.409   1_556  A
C926        F927   1.358       .  S
C931        C932   1.403       .  A
C931        C936   1.401       .  A
C931        F938   1.358       .  S
C932        C933   1.406       .  A
C933        C934   1.400       .  A
C933        F940   1.358       .  S
C934        C935   1.407       .  A
C934        F939   1.358       .  S
C935        C936   1.411       .  A
C936        F937   1.358       .  S
C941        C942   1.413       .  A
C941        C946   1.401       .  A
C941        F948   1.358       .  S
C942        C943   1.413       .  A
C943        C944   1.401       .  A
C943        F950   1.358       .  S
C944        C945   1.402       .  A
C944        F949   1.358       .  S
C945        C946   1.403       .  A
C946        F947   1.358       .  S
C951        C952   1.413   1_556  A
C951        C956   1.401       .  A
C951        F958   1.358       .  S
C952        C953   1.412       .  A
C953        C954   1.407       .  A
C953        F960   1.358       .  S
C954        C955   1.413       .  A
C954        F959   1.358       .  S
C955        C956   1.411   1_554  A
C956        F957   1.358       .  S
C961        C962   1.409       .  A
C961        C966   1.401       .  A
C961        F968   1.358       .  S
C962        C963   1.411       .  A
C963        C964   1.402       .  A
C963        F970   1.358       .  S
C964        C965   1.404       .  A
C964        F969   1.358       .  S
C965        C966   1.406       .  A
C966        F967   1.358       .  S
C971        C972   1.407       .  A
C971        C976   1.397       .  A
C971        F978   1.358       .  S
C972        C973   1.410       .  A
C973        C974   1.400       .  A
C973        F980   1.358       .  S
C974        C975   1.405       .  A
C974        F979   1.358       .  S
C975        C976   1.407       .  A
C976        F977   1.359       .  S
C981        C982   1.408       .  A
C981        C986   1.399       .  A
C981        F988   1.358       .  S
C982        C983   1.411       .  A
C983        C984   1.409       .  A
C983        F990   1.358       .  S
C984        C985   1.410       .  A
C984        F989   1.357       .  S
C985        C986   1.410       .  A
C986        F987   1.358       .  S
C991        C992   1.409       .  A
C991        C996   1.401       .  A
C991        F998   1.358       .  S
C992        C993   1.411       .  A
C993        C994   1.401       .  A
C993       F1000   1.358       .  S
C994        C995   1.405       .  A
C994        F999   1.358       .  S
C995        C996   1.406       .  A
C996        F997   1.358       .  S
C1001      C1002   1.412   1_554  A
C1001      C1006   1.398       .  A
C1001      F1008   1.358       .  S
C1002      C1003   1.410       .  A
C1003      C1004   1.402       .  A
C1003      F1010   1.358       .  S
C1004      C1005   1.411       .  A
C1004      F1009   1.358       .  S
C1005      C1006   1.410   1_556  A
C1006      F1007   1.358       .  S
C1011      C1012   1.412   1_556  A
C1011      C1016   1.402       .  A
C1011      F1018   1.358       .  S
C1012      C1013   1.407       .  A
C1013      C1014   1.392       .  A
C1013      F1020   1.358       .  S
C1014      C1015   1.408       .  A
C1014      F1019   1.359       .  S
C1015      C1016   1.406   1_554  A
C1016      F1017   1.358   1_545  S
C1021      C1022   1.412   1_554  A
C1021      C1026   1.403       .  A
C1021      F1028   1.358       .  S
C1022      C1023   1.408       .  A
C1023      C1024   1.404       .  A
C1023      F1030   1.358       .  S
C1024      C1025   1.408       .  A
C1024      F1029   1.358       .  S
C1025      C1026   1.405   1_556  A
C1026      F1027   1.358       .  S
C1031      C1032   1.411       .  A
C1031      C1036   1.398       .  A
C1031      F1038   1.358       .  S
C1032      C1033   1.409       .  A
C1033      C1034   1.400       .  A
C1033      F1040   1.358       .  S
C1034      C1035   1.411       .  A
C1034      F1039   1.358       .  S
C1035      C1036   1.409       .  A
C1036      F1037   1.358       .  S
C1041      C1042   1.411       .  A
C1041      C1046   1.402       .  A
C1041      F1048   1.358       .  S
C1042      C1043   1.406       .  A
C1043      C1044   1.396       .  A
C1043      F1050   1.358       .  S
C1044      C1045   1.409       .  A
C1044      F1049   1.358       .  S
C1045      C1046   1.408       .  A
C1046      F1047   1.358       .  S
C1051      C1052   1.413       .  A
C1051      C1056   1.402       .  A
C1051      F1058   1.358       .  S
C1052      C1053   1.407   1_556  A
C1053      C1054   1.393       .  A
C1053      F1060   1.358       .  S
C1054      C1055   1.412   1_554  A
C1054      F1059   1.358       .  S
C1055      C1056   1.408       .  A
C1056      F1057   1.358       .  S
