geometry optimzed in LAMMPS
_audit_creation_date              2020-11-30 
_audit_creation_method            'lammps2cif' 
_symmetry_space_group_name_H-M    'P1' 
_symmetry_Int_Tables_number       1 
_symmetry_cell_setting            triclinic 
loop_ 
_symmetry_equiv_pos_as_xyz 
  x,y,z 
_cell_length_a                    41.58783286 
_cell_length_b                    41.082790587337854 
_cell_length_c                    29.83474518394602 
_cell_angle_alpha                 90.36845037106276 
_cell_angle_beta                  89.9869129636263 
_cell_angle_gamma                 89.95913885883392 
loop_ 
_atom_site_label 
_atom_site_type_symbol 
_atom_site_fract_x 
_atom_site_fract_y 
_atom_site_fract_z 
_atom_site_charge 
C1          C  0.13954374  0.36352762  0.01759515    -0.02500
C2          C  0.11770469  0.38821990  0.23974329    -0.02500
C3          C  0.38079482  0.10558714  0.02139172    -0.02500
C4          C  0.36419317  0.13499299  0.24009860    -0.02500
C5          C  0.06737343  0.32420761  0.08062567     0.80200
N6          N  0.09712366  0.32880167  0.06082559    -0.78100
C7          C  0.10920844  0.35940787  0.05177196     0.82600
N8          N  0.09013299  0.38528407  0.06529866    -0.78100
C9          C  0.06073972  0.38010304  0.08620323     0.82700
N10         N  0.05004331  0.34985645  0.09327375    -0.79800
C11         C  0.03633629  0.35858973  0.28992451     0.80200
N12         N  0.06801382  0.35866502  0.27581444    -0.78100
C13         C  0.08370459  0.38762356  0.26623921     0.82600
N14         N  0.06769903  0.41602787  0.27814369    -0.78100
C15         C  0.03589393  0.41507273  0.29178829     0.82700
N16         N  0.02102496  0.38663982  0.29568446    -0.79800
C17         C  0.36808188  0.18655737  0.09105580     0.80200
N18         N  0.36157257  0.15695208  0.06981906    -0.78100
C19         C  0.38617948  0.13619024  0.05629462     0.82600
N20         N  0.41705541  0.14727045  0.06488665    -0.78100
C21         C  0.42320532  0.17736135  0.08432842     0.82700
N22         N  0.39861931  0.19606013  0.09755318    -0.79800
C23         C  0.39798389  0.21452134  0.29415870     0.80200
N24         N  0.39564769  0.18283327  0.27881183    -0.78100
C25         C  0.36628569  0.16986612  0.26556675     0.82600
N26         N  0.33933934  0.18889152  0.27383688    -0.78100
C27         C  0.34228510  0.22068050  0.28900766     0.82700
N28         N  0.37142799  0.23252682  0.29792368    -0.79800
C29         C  0.21319144  0.39855700  0.08818934     0.80200
N30         N  0.23106762  0.37188130  0.09201401    -0.78100
C31         C  0.22242549  0.34316671  0.07440878     0.82600
N32         N  0.19313862  0.34011509  0.05257313    -0.78100
C33         C  0.17351414  0.36701116  0.04548854     0.82700
N34         N  0.18465680  0.39662136  0.06320377    -0.79800
C35         C  0.19104553  0.42552721  0.29956391     0.80200
N36         N  0.16147381  0.42189701  0.27973885    -0.78100
C37         C  0.14791854  0.39184038  0.27350603     0.82600
N38         N  0.16514935  0.36541121  0.29045008    -0.78100
C39         C  0.19484237  0.36977342  0.31120263     0.82700
N40         N  0.20704439  0.39969564  0.31481632    -0.79800
C41         C  0.34932565  0.03062231  0.09323571     0.80200
N42         N  0.35070922  0.06031443  0.07027724    -0.78100
C43         C  0.37852555  0.07043371  0.04768516     0.82600
N44         N  0.40401187  0.04847853  0.04768958    -0.78100
C45         C  0.40103977  0.01809198  0.06748656     0.82700
N46         N  0.37430814  0.01071118  0.08993124    -0.79800
C47         C  0.32448047  0.06445692  0.30129508     0.80200
N48         N  0.32948732  0.09416786  0.28227347    -0.78100
C49         C  0.35990076  0.10551753  0.27457999     0.82600
N50         N  0.38526261  0.08617804  0.28971726    -0.78100
C51         C  0.37956479  0.05658999  0.31064393     0.82700
N52         N  0.34928365  0.04640030  0.31537750    -0.79800
C53         C  0.43841366  0.09012759  0.19659789     0.80200
N54         N  0.40707179  0.09700403  0.20694733    -0.78100
C55         C  0.39738913  0.12874238  0.21449683     0.82600
N56         N  0.41990245  0.15334676  0.20693600    -0.78100
C57         C  0.45120430  0.14548184  0.19551252     0.82700
N58         N  0.45926942  0.11426041  0.19194801    -0.79800
C59         C  0.46089105  0.08956996  0.46204815     0.80200
N60         N  0.43108853  0.08501755  0.48343936    -0.78100
C61         C  0.41170225  0.11129148  0.49597334     0.82600
N62         N  0.42237474  0.14144048  0.48203084    -0.78100
C63         C  0.45210245  0.14562438  0.46216076     0.82700
N64         N  0.47078699  0.11987658  0.45355245    -0.79800
O65         O  0.43153201  0.99517300  0.12322769    -0.78500
C66         C  0.51302338  0.49908499  0.25286357     0.82500
O67         O  0.97386431  0.05835039  0.17085805    -0.79600
O68         O  0.05341711  0.47266824  0.13083050    -0.81100
O69         O  0.51590242  0.41755193  0.07472684    -0.80900
O70         O  0.44150486  0.47684579  0.05456444    -0.79600
Zn71       Zn  0.45031921  0.98388439  0.18511576     1.55700
O72         O  0.03966048  0.41070321  0.14639071    -0.81000
Cd73       Cd  0.48586278  0.45866976  0.08214220     1.59700
Cd74       Cd  0.00438934  0.02180584  0.13903973     1.59600
O75         O  0.51769070  0.48837033  0.05233164    -0.80900
O76         O  0.48778749  0.97955152  0.14507280    -1.91500
Cd77       Cd  0.02547884  0.45355990  0.17553331     1.59900
O78         O  0.99551389  0.03430829  0.06936263    -0.80900
O79         O  0.03765132  0.47658675  0.23895119    -0.79600
C80         C  0.45189976  0.05792117  0.18665659     0.83000
C81         C  0.42755643  0.99652196  0.08120979     0.82600
O82         O  0.48401900  0.99630657  0.23735823    -0.78500
C83         C  0.03985896  0.40585118  0.10375775     0.83400
O84         O  0.43565385  0.03239083  0.19222261    -0.78600
C85         C  0.00414211  0.01284287  0.04111520     0.83600
C86         C  0.06817258  0.48820115  0.15968924     0.83900
O87         O  0.05369295  0.01551628  0.16628147    -0.81000
O88         O  0.40468771  0.03060093  0.37375833    -0.78500
C89         C  0.47878484  0.50113168  0.49267385     0.82500
O90         O  0.01398880  0.05383459  0.43248521    -0.79600
O91         O  0.03534472  0.42287467  0.44786845    -0.81100
O92         O  0.48212838  0.45194801  0.29586056    -0.80900
O93         O  0.42189048  0.52470592  0.30400280    -0.79600
Zn94       Zn  0.44324123  0.01576086  0.41307558     1.55700
O95         O  0.02644505  0.44642045  0.35629047    -0.81000
Cd96       Cd  0.46237155  0.49656048  0.32086228     1.59700
Cd97       Cd  0.02341376  0.00695628  0.39646800     1.59600
O98         O  0.49404470  0.53249967  0.31051674    -0.80900
O99         O  0.47449058  0.98798207  0.38703644    -1.91500
Cd100      Cd  0.99218348  0.44541101  0.41725451     1.59900
O101        O  0.04212914  0.00329542  0.32764269    -0.80900
O102        O  0.00050025  0.48143251  0.47562599    -0.79600
C103        C  0.47668569  0.06480858  0.43197886     0.83000
C104        C  0.40451154  0.03487086  0.33090630     0.82600
O105        O  0.45465284  0.01532926  0.48145658    -0.78500
C106        C  0.01826585  0.44092136  0.31566677     0.83400
O107        O  0.46090058  0.05624749  0.39844212    -0.78600
C108        C  0.02241320  0.01344683  0.29826979     0.83600
C109        C  0.05850523  0.44317173  0.44875866     0.83900
O110        O  0.05615746  0.97347429  0.43420079    -0.81000
C111        C  0.09600978  0.47075153  0.17977744     0.80200
N112        N  0.09329521  0.44114276  0.20191905    -0.78100
C113        C  0.11894400  0.41953180  0.20582535     0.82600
N114        N  0.14676285  0.42789586  0.18266688    -0.78100
C115        C  0.14816506  0.45669163  0.15848789     0.82700
N116        N  0.12341063  0.47742152  0.15899939    -0.79800
C117        C  0.09080882  0.43450037  0.46642397     0.80200
N118        N  0.11252606  0.45820883  0.46212563    -0.78100
C119        C  0.14313405  0.45502018  0.47452422     0.82600
N120        N  0.15307519  0.42572014  0.49343903    -0.78100
C121        C  0.13129450  0.40007777  0.49919306     0.82700
N122        N  0.10006679  0.40508741  0.48418567    -0.79800
O123        O  0.17707634  0.46702115  0.09004208    -0.78500
C124        C  0.25967932  0.98602574  0.97756099     0.82500
O125        O  0.23688095  0.44206328  0.13818520    -0.79600
O126        O  0.30670181  0.99582816  0.07633238    -0.81100
O127        O  0.26356711  0.05690852  0.15611499    -0.80900
O128        O  0.18994917  0.99215759  0.15707249    -0.79600
Zn129      Zn  0.21956158  0.47942744  0.05648516     1.55700
O130        O  0.28842514  0.07062608  0.09258534    -0.81000
Cd131      Cd  0.21362380  0.04010554  0.13212564     1.59700
Cd132      Cd  0.25582809  0.49374628  0.14852224     1.59600
O133        O  0.19814617  0.06057501  0.19390044    -0.80900
O134        O  0.23881747  0.51218360  0.08798990    -1.91500
Cd135      Cd  0.27476453  0.02690448  0.05819712     1.59900
O136        O  0.23059596  0.51933764  0.20834991    -0.80900
O137        O  0.27979372  0.00530045  0.99599612    -0.79600
C138        C  0.23172632  0.42930425  0.09883283     0.83000
C139        C  0.17560667  0.46983200  0.13307516     0.82600
O140        O  0.23528143  0.47988224  0.99364437    -0.78500
C141        C  0.28478642  0.07346456  0.13537521     0.83400
O142        O  0.24470206  0.44261869  0.06615824    -0.78600
C143        C  0.20944884  0.54198378  0.21876743     0.83600
C144        C  0.31941869  0.01211257  0.10662994     0.83900
O145        O  0.30736491  0.51226270  0.14313753    -0.81000
O146        O  0.16008745  0.49038176  0.41598727    -0.78500
C147        C  0.20602082  0.05082702  0.27146343     0.82500
O148        O  0.23234080  0.46293296  0.32075107    -0.79600
O149        O  0.27621423  0.07360305  0.33697153    -0.81100
O150        O  0.25797850  0.05468839  0.46849977    -0.80900
O151        O  0.18424072  0.99897875  0.48365548    -0.79600
Zn152      Zn  0.16968093  0.51842893  0.35427608     1.55700
O153        O  0.25435375  0.09353715  0.41690674    -0.81000
Cd154      Cd  0.21953935  0.02181530  0.44373816     1.59700
Cd155      Cd  0.25340312  0.50385209  0.35206062     1.59600
O156        O  0.23388911  0.97682115  0.42340019    -0.80900
O157        O  0.21602524  0.53252062  0.37581153    -1.91500
Cd158      Cd  0.23150924  0.07150134  0.36099761     1.59900
O159        O  0.28194895  0.49185134  0.40929768    -0.80900
O160        O  0.22069026  0.07382990  0.29210450    -0.79600
C161        C  0.20233368  0.45681459  0.31536587     0.83000
C162        C  0.16368621  0.48235259  0.45710649     0.82600
O163        O  0.18232442  0.53129745  0.28727894    -0.78500
C164        C  0.26788002  0.08181473  0.45227807     0.83400
O165        O  0.18070848  0.47591062  0.32817070    -0.78600
C166        C  0.26052264  0.48370498  0.43692435     0.83600
C167        C  0.29312058  0.05360159  0.31530621     0.83900
O168        O  0.28420123  0.52920821  0.31156980    -0.81000
C169        C  0.28116845  0.15367502  0.18283164     0.80200
N170        N  0.27548437  0.12575911  0.16177828    -0.78100
C171        C  0.29717461  0.10184006  0.15998760     0.82600
N172        N  0.32589959  0.10451575  0.18331252    -0.78100
C173        C  0.33322351  0.13295160  0.20662776     0.82700
N174        N  0.31063099  0.15782194  0.20409095    -0.79800
C175        C  0.31251314  0.15728791  0.46959761     0.80200
N176        N  0.29008429  0.13447776  0.46296915    -0.78100
C177        C  0.29417730  0.10305834  0.47330901     0.82600
N178        N  0.32310739  0.09386162  0.49365173    -0.78100
C179        C  0.34730523  0.11701292  0.50230783     0.82700
N180        N  0.34144784  0.14864184  0.48840730    -0.79800
O181        O  0.09429803  0.25600151  0.14247336    -0.78500
C182        C  0.02006608  0.23151639  0.03127484     0.82500
O183        O  0.52609688  0.28383058  0.11476206    -0.79600
O184        O  0.47867847  0.16967447  0.08189884    -0.81100
O185        O  0.98259411  0.19880634  0.19040157    -0.80900
O186        O  0.05495855  0.26682407  0.19015557    -0.79600
Zn187      Zn  0.08387169  0.21907864  0.08929912     1.55700
O188        O  0.49466647  0.15368097  0.14711390    -0.81000
Cd189      Cd  0.03235955  0.21758525  0.17742862     1.59700
Cd190      Cd  0.50775900  0.23827176  0.14713652     1.59600
O191        O  0.04605362  0.20100103  0.23422271    -0.80900
O192        O  0.04416795  0.20689200  0.12166440    -1.91500
Cd193      Cd  0.53126348  0.16214356  0.09034245     1.59900
O194        O  0.50672355  0.24111629  0.23071876    -0.80900
O195        O  0.50804447  0.19994944  0.04343787    -0.79200
C196        C  0.05494537  0.29153916  0.09148929     0.83000
C197        C  0.08292553  0.27340479  0.17484601     0.82600
O198        O  0.04841099  0.24014462  0.04304384    -0.78500
C199        C  0.47743622  0.16672457  0.17813614     0.83400
O200        O  0.07356138  0.26834042  0.08068946    -0.78600
C201        C  0.52509656  0.22203985  0.25565692     0.83600
C202        C  0.45646400  0.18931273  0.09316672     0.83900
O203        O  0.46273591  0.21638146  0.11503359    -0.81000
O204        O  0.47111879  0.24008309  0.48717936    -0.78500
C205        C  0.42553543  0.22870861  0.31878367     0.82500
O206        O  0.00598660  0.18883796  0.43561714    -0.79600
O207        O  0.52818667  0.25557283  0.31729023    -0.81100
O208        O  0.02300631  0.33155474  0.35637379    -0.80900
O209        O  0.00727481  0.27752345  0.48437091    -0.79600
Zn210      Zn  0.44331087  0.24618235  0.42563162     1.55700
O211        O  0.49461696  0.31353754  0.30173140    -0.81000
Cd212      Cd  0.00534082  0.30797789  0.42184864     1.59700
Cd213      Cd  0.02956109  0.22689050  0.39776650     1.59600
O214        O  0.05502525  0.30389550  0.43566705    -0.80900
O215        O  0.48574006  0.25872070  0.39500228    -1.91500
Cd216      Cd  0.48398619  0.26915316  0.32961297     1.59900
O217        O  0.07053001  0.25188762  0.42835656    -0.80900
O218        O  0.45071307  0.23831423  0.29834589    -0.79600
C219        C  0.46311097  0.17704495  0.44411097     0.83000
C220        C  0.49714916  0.25087328  0.50394833     0.82600
O221        O  0.42108207  0.23490587  0.36063895    -0.78500
C222        C  0.51494850  0.33128060  0.32225474     0.83400
O223        O  0.44174109  0.19732840  0.43385808    -0.78600
C224        C  0.07583437  0.28196358  0.43977037     0.83600
C225        C  0.03350573  0.22921133  0.30082619     0.83900
O226        O  0.03645660  0.20769681  0.33109341    -0.81000
C227        C  0.16017893  0.31170225  0.19656094     0.80200
N228        N  0.13584591  0.29120531  0.18917190    -0.78100
C229        C  0.10496823  0.29997559  0.19216212     0.82600
N230        N  0.09788152  0.33176449  0.20522829    -0.78100
C231        C  0.12270213  0.35403904  0.21403727     0.82700
N232        N  0.15381938  0.34335362  0.20768147    -0.79800
C233        C  0.16236805  0.28582125  0.45965954     0.80200
N234        N  0.16579649  0.31609395  0.48141498    -0.78100
C235        C  0.13918692  0.33502059  0.49304711     0.82600
N236        N  0.11003456  0.32332717  0.47816917    -0.78100
C237        C  0.10685491  0.29323334  0.45778791     0.82700
N238        N  0.13283751  0.27499136  0.44959280    -0.79800
O239        O  0.33779124  0.21017638  0.15088105    -0.78500
C240        C  0.25200129  0.23304166  0.25672924     0.82500
O241        O  0.23418546  0.19043855  0.17309759    -0.79600
O242        O  0.21784166  0.31502617  0.19222029    -0.81100
O243        O  0.26658867  0.30426761  0.06958273    -0.80900
O244        O  0.32926303  0.22924092  0.08154863    -0.79600
Zn245      Zn  0.29467873  0.22362550  0.17613022     1.55700
O246        O  0.24010274  0.31275412  0.13404724    -0.81000
Cd247      Cd  0.28830812  0.25967899  0.09119336     1.59700
Cd248      Cd  0.22665426  0.23914269  0.14492102     1.59600
O249        O  0.25955705  0.22734529  0.06151242    -0.80900
O250        O  0.27209810  0.25829004  0.15235897    -1.91500
Cd251      Cd  0.27092474  0.29853699  0.19412372     1.59900
O252        O  0.21429227  0.25028901  0.07585817    -0.80900
O253        O  0.24625082  0.26092572  0.23932218    -0.79600
C254        C  0.26258403  0.18083237  0.16319017     0.83000
C255        C  0.34327316  0.20936866  0.10845895     0.82600
O256        O  0.27427540  0.21463899  0.24060580    -0.78500
C257        C  0.24271329  0.31653344  0.09173244     0.83400
O258        O  0.27639880  0.19564719  0.13298566    -0.78600
C259        C  0.23668314  0.24439452  0.04800789     0.83600
C260        C  0.19246788  0.29761526  0.19046149     0.83900
O261        O  0.19363318  0.26724324  0.18038551    -0.81000
O262        O  0.31604335  0.23388754  0.35542294    -0.78500
C263        C  0.24739507  0.26784665  0.50124740     0.82500
O264        O  0.27508694  0.19408391  0.43591774    -0.79600
O265        O  0.19706079  0.28635842  0.39845703    -0.81100
O266        O  0.23084926  0.32421766  0.30788803    -0.80900
O267        O  0.30072665  0.26199146  0.29516931    -0.79600
Zn268      Zn  0.29559845  0.24723282  0.41811026     1.55700
O269        O  0.21861256  0.34477926  0.37573420    -0.81000
Cd270      Cd  0.25814517  0.28280838  0.32490832     1.59700
Cd271      Cd  0.24516833  0.22933647  0.39872925     1.59600
O272        O  0.22105621  0.25176556  0.31650254    -0.80900
O273        O  0.26620079  0.27646148  0.38897746    -1.91500
Cd274      Cd  0.23635900  0.30735710  0.41779444     1.59900
O275        O  0.24614764  0.20795816  0.33089971    -0.80900
O276        O  0.23360537  0.29411100  0.48778840    -0.79600
C277        C  0.30385688  0.18997735  0.45177028     0.83000
C278        C  0.31703141  0.23887386  0.31332716     0.82600
O279        O  0.26863526  0.25385636  0.47728611    -0.78500
C280        C  0.21484813  0.34405053  0.33270332     0.83400
O281        O  0.32407413  0.21296926  0.44982093    -0.78600
C282        C  0.23640969  0.22793020  0.30154049     0.83600
C283        C  0.18796681  0.27036308  0.43133997     0.83900
O284        O  0.20085268  0.24213859  0.43705985    -0.81000
C285        C  0.13946236  0.36711996  0.52660000    -0.02500
C286        C  0.11645648  0.39045153  0.74098217    -0.02500
C287        C  0.38022152  0.10968410  0.52984149    -0.02500
C288        C  0.36176701  0.13708129  0.73701291    -0.02500
C289        C  0.06567529  0.32602993  0.58209671     0.80200
N290        N  0.09592861  0.33102177  0.56458299    -0.78100
C291        C  0.10898899  0.36164953  0.55962283     0.82600
N292        N  0.09008521  0.38720840  0.57493456    -0.78100
C293        C  0.06021250  0.38146874  0.59392905     0.82700
N294        N  0.04851958  0.35132806  0.59687955    -0.79800
C295        C  0.03638910  0.36086424  0.79517625     0.80200
N296        N  0.06752496  0.36087608  0.77882885    -0.78100
C297        C  0.08292569  0.38984146  0.76838641     0.82600
N298        N  0.06695983  0.41833913  0.78002251    -0.78100
C299        C  0.03565604  0.41753940  0.79566401     0.82700
N300        N  0.02126620  0.38900627  0.80197751    -0.79800
C301        C  0.36836113  0.19140949  0.59717145     0.80200
N302        N  0.36144146  0.16144820  0.57745650    -0.78100
C303        C  0.38595484  0.14048265  0.56368768     0.82600
N304        N  0.41674365  0.15194165  0.57057396    -0.78100
C305        C  0.42320962  0.18222978  0.58810225     0.82700
N306        N  0.39882754  0.20135667  0.60182929    -0.79800
C307        C  0.39535317  0.21558414  0.79452241     0.80200
N308        N  0.39342809  0.18459664  0.77646636    -0.78100
C309        C  0.36403092  0.17121668  0.76411286     0.82600
N310        N  0.33684150  0.18918744  0.77479940    -0.78100
C311        C  0.33928468  0.22042727  0.79203369     0.82700
N312        N  0.36833597  0.23258667  0.80117892    -0.79800
C313        C  0.21211278  0.40158543  0.60033083     0.80200
N314        N  0.23087220  0.37547134  0.60109956    -0.78100
C315        C  0.22319279  0.34741394  0.58095316     0.82600
N316        N  0.19390294  0.34425411  0.55926887    -0.78100
C317        C  0.17332700  0.37065813  0.55486599     0.82700
N318        N  0.18350699  0.39984346  0.57532553    -0.79800
C319        C  0.19781206  0.41893793  0.78962940     0.80200
N320        N  0.16758232  0.41901433  0.77097068    -0.78100
C321        C  0.14755939  0.39250790  0.77378269     0.82600
N322        N  0.15940412  0.36581424  0.79753326    -0.78100
C323        C  0.18977034  0.36689853  0.81747214     0.82700
N324        N  0.20800622  0.39326972  0.81250532    -0.79800
C325        C  0.34897189  0.03688635  0.60682334     0.80200
N326        N  0.35027078  0.06615050  0.58259852    -0.78100
C327        C  0.37740843  0.07485184  0.55709199     0.82600
N328        N  0.40181968  0.05174499  0.55480612    -0.78100
C329        C  0.39893275  0.02202153  0.57627062     0.82700
N330        N  0.37340058  0.01633142  0.60220320    -0.79800
C331        C  0.32738270  0.05837812  0.78199354     0.80200
N332        N  0.32978942  0.08959458  0.76749778    -0.78100
C333        C  0.35796147  0.10648868  0.76963066     0.82600
N334        N  0.38355867  0.09127487  0.79146429    -0.78100
C335        C  0.37998105  0.05999073  0.80858093     0.82700
N336        N  0.35235978  0.04414575  0.80210523    -0.79800
C337        C  0.43455216  0.09091107  0.69324982     0.80200
N338        N  0.40352045  0.09863878  0.70366687    -0.78100
C339        C  0.39468705  0.13057727  0.71137904     0.82600
N340        N  0.41796838  0.15459976  0.70494723    -0.78100
C341        C  0.44906253  0.14593596  0.69350710     0.82700
N342        N  0.45614743  0.11449259  0.68890169    -0.79800
C343        C  0.46288270  0.08864123  0.95617602     0.80200
N344        N  0.43280247  0.08296090  0.97612520    -0.78100
C345        C  0.41228229  0.10849509  0.98808389     0.82600
N346        N  0.42225931  0.13907944  0.97499328    -0.78100
C347        C  0.45219474  0.14433051  0.95640727     0.82700
N348        N  0.47190504  0.11924892  0.94831244    -0.79800
O349        O  0.43072057  0.99389702  0.62605695    -0.78500
C350        C  0.51557352  0.49759804  0.75231505     0.82500
O351        O  0.97499266  0.06108729  0.67473837    -0.79600
O352        O  0.05007217  0.47370353  0.63325229    -0.81100
O353        O  0.51228018  0.41578284  0.57523438    -0.80900
O354        O  0.43727409  0.47641713  0.55846169    -0.79600
Zn355      Zn  0.44542024  0.98349625  0.68974567     1.55700
O356        O  0.03924362  0.41263965  0.65370753    -0.81000
Cd357      Cd  0.48220141  0.45675434  0.58336921     1.59700
Cd358      Cd  0.00534896  0.02604078  0.64156370     1.59600
O359        O  0.51369934  0.48430645  0.54976646    -0.80900
O360        O  0.48217844  0.97772129  0.64680348    -1.91500
Cd361      Cd  0.02385963  0.45576108  0.68053625     1.59900
O362        O  0.99531723  0.03992560  0.57287224    -0.80900
O363        O  0.03761752  0.48061718  0.74152573    -0.79600
C364        C  0.44707103  0.05822155  0.68416484     0.83000
C365        C  0.42508373  0.99829689  0.58495277     0.82600
O366        O  0.48051375  0.99829955  0.73878670    -0.78500
C367        C  0.03885842  0.40673294  0.61141497     0.83400
O368        O  0.43110159  0.03293837  0.69328965    -0.78600
C369        C  0.00332326  0.01800817  0.54509195     0.83600
C370        C  0.06566633  0.49016400  0.66012524     0.83900
O371        O  0.05470756  0.01840455  0.66849004    -0.81000
O372        O  0.40620217  0.03970748  0.87519067    -0.78500
C373        C  0.48396880  0.50473736  0.99372409     0.82500
O374        O  0.01163656  0.05400842  0.93455510    -0.79600
O375        O  0.03642644  0.42924707  0.94666425    -0.81100
O376        O  0.48478033  0.45103039  0.79817052    -0.80900
O377        O  0.42507119  0.52473865  0.80593412    -0.79600
Zn378      Zn  0.44314239  0.02076080  0.91494164     1.55700
O379        O  0.02557417  0.44975401  0.85922132    -0.81000
Cd380      Cd  0.46503611  0.49579756  0.82234062     1.59700
Cd381      Cd  0.02202555  0.00874438  0.89532348     1.59600
O382        O  0.49727602  0.53091471  0.81055200    -0.80900
O383        O  0.46880373  0.98835381  0.88859206    -1.91500
Cd384      Cd  0.98968935  0.44842189  0.91875217     1.59900
O385        O  0.04253650  0.01095719  0.82760787    -0.80900
O386        O  0.00214736  0.48450964  0.97582952    -0.79600
C387        C  0.48043239  0.06456308  0.92687103     0.83000
C388        C  0.40495041  0.04026296  0.83186688     0.82600
O389        O  0.45829346  0.02063335  0.98382625    -0.78500
C390        C  0.01836459  0.44438323  0.81823944     0.83400
O391        O  0.46639450  0.05590755  0.89210187    -0.78600
C392        C  0.02178330  0.01997461  0.79907213     0.83600
C393        C  0.06114992  0.44747236  0.94669217     0.83900
O394        O  0.05409976  0.97231362  0.92806832    -0.81000
C395        C  0.09347371  0.47307307  0.68112900     0.80200
N396        N  0.09112848  0.44320796  0.70288925    -0.78100
C397        C  0.11730340  0.42228724  0.70760833     0.82600
N398        N  0.14517465  0.43157067  0.68533054    -0.78100
C399        C  0.14647641  0.46095568  0.66258960     0.82700
N400        N  0.12120642  0.48097339  0.66232873    -0.79800
C401        C  0.09373655  0.43447084  0.95807272     0.80200
N402        N  0.11780504  0.45273841  0.94253682    -0.78100
C403        C  0.14864843  0.44456510  0.94690961     0.82600
N404        N  0.15653030  0.41601818  0.96984789    -0.78100
C405        C  0.13238203  0.39577121  0.98699626     0.82700
N406        N  0.10078296  0.40552739  0.97935797    -0.79800
O407        O  0.17770620  0.46895883  0.59608318    -0.78500
C408        C  0.26216792  0.98678900  0.48648891     0.82500
O409        O  0.23323784  0.44571857  0.65216479    -0.79600
O410        O  0.30874054  0.99872560  0.59170822    -0.81100
O411        O  0.25237900  0.06578733  0.65188703    -0.80900
O412        O  0.18603873  0.99745974  0.65409007    -0.79600
Zn413      Zn  0.22187083  0.47987332  0.56884680     1.55700
O414        O  0.28614954  0.07232648  0.59431208    -0.81000
Cd415      Cd  0.20437970  0.04576851  0.62227549     1.59700
Cd416      Cd  0.25355460  0.49701228  0.66336184     1.59600
O417        O  0.19208289  0.05686105  0.69371070    -0.80900
O418        O  0.23898015  0.51361791  0.60158646    -1.91500
Cd419      Cd  0.27539183  0.02622579  0.56779088     1.59900
O420        O  0.22621591  0.52204553  0.72130898    -0.80900
O421        O  0.28180244  0.00695296  0.50376295    -0.79600
C422        C  0.23076363  0.43206801  0.61285908     0.83000
C423        C  0.17380496  0.47481988  0.63803342     0.82600
O424        O  0.23644462  0.48006928  0.50635364    -0.78500
C425        C  0.27796345  0.07822588  0.63502802     0.83400
O426        O  0.24723801  0.44386063  0.58209231    -0.78600
C427        C  0.20483579  0.54493823  0.72853734     0.83600
C428        C  0.31904242  0.01806283  0.62071786     0.83900
O429        O  0.30492241  0.51726616  0.65705221    -0.81000
O430        O  0.17109643  0.46855693  0.87995128    -0.78500
C431        C  0.19289728  0.05427308  0.77339018     0.82500
O432        O  0.24465469  0.44773059  0.81396242    -0.79600
O433        O  0.27544996  0.06498549  0.80311604    -0.81100
O434        O  0.25833874  0.04920517  0.95114871    -0.80900
O435        O  0.18191249  0.99329843  0.95024878    -0.79600
Zn436      Zn  0.19174554  0.49948991  0.82904991     1.55700
O437        O  0.26116149  0.08664163  0.89794686    -0.81000
Cd438      Cd  0.22230188  0.01504757  0.92100907     1.59700
Cd439      Cd  0.26791377  0.49002906  0.83960223     1.59600
O440        O  0.23795300  0.96854048  0.91159786    -0.80900
O441        O  0.22964502  0.51894051  0.85211050    -1.91500
Cd442      Cd  0.23752360  0.06479150  0.84255598     1.59900
O443        O  0.29017041  0.48546885  0.90411929    -0.80900
O444        O  0.20598828  0.07869320  0.79286369    -0.79600
C445        C  0.21814499  0.44776806  0.79161817     0.83000
C446        C  0.17079405  0.46809538  0.92333374     0.82600
O447        O  0.17098273  0.53495418  0.79373129    -0.78500
C448        C  0.27120395  0.07526952  0.93560854     0.83400
O449        O  0.20602793  0.47382957  0.77871578    -0.78600
C450        C  0.26661456  0.47797919  0.92865752     0.83600
C451        C  0.29664929  0.04454138  0.79239546     0.83900
O452        O  0.29981402  0.51634044  0.80169144    -0.81000
C453        C  0.27898027  0.15874876  0.68081889     0.80200
N454        N  0.27120328  0.13058529  0.66213093    -0.78100
C455        C  0.29180455  0.10581179  0.65996378     0.82600
N456        N  0.32169636  0.10801546  0.68048662    -0.78100
C457        C  0.33054862  0.13626212  0.70340388     0.82700
N458        N  0.30898563  0.16198530  0.70089693    -0.79800
C459        C  0.31035347  0.15184218  0.96498996     0.80200
N460        N  0.28955560  0.12816016  0.95472564    -0.78100
C461        C  0.29562595  0.09654343  0.96104412     0.82600
N462        N  0.32502128  0.08799458  0.98111525    -0.78100
C463        C  0.34747213  0.11216900  0.99372754     0.82700
N464        N  0.33957491  0.14398980  0.98355648    -0.79800
O465        O  0.09266286  0.25902914  0.63960853    -0.78500
C466        C  0.01461048  0.23019099  0.52834727     0.82500
O467        O  0.52716095  0.28386706  0.61810090    -0.79600
O468        O  0.47810459  0.17410836  0.58285995    -0.81100
O469        O  0.98315689  0.20017686  0.69062288    -0.80900
O470        O  0.05432287  0.26878715  0.68934333    -0.79600
Zn471      Zn  0.08113351  0.22199080  0.58531237     1.55700
O472        O  0.49293836  0.15408664  0.64585320    -0.81000
Cd473      Cd  0.03273333  0.21920737  0.67724476     1.59700
Cd474      Cd  0.50873622  0.23877126  0.64972323     1.59600
O475        O  0.04699839  0.20277230  0.73414079    -0.80900
O476        O  0.04338388  0.20895245  0.62058464    -1.91500
Cd477      Cd  0.53008551  0.16301435  0.58987660     1.59900
O478        O  0.50768572  0.24030671  0.73271412    -0.80900
O479        O  0.50697705  0.20122029  0.54389331    -0.79200
C480        C  0.05267896  0.29337383  0.59026775     0.83000
C481        C  0.08170689  0.27606155  0.67280252     0.82600
O482        O  0.04215779  0.24055736  0.54142167    -0.78500
C483        C  0.47609527  0.16680202  0.67754988     0.83400
O484        O  0.07140469  0.27056293  0.57830601    -0.78600
C485        C  0.52575681  0.22059022  0.75700992     0.83600
C486        C  0.45631528  0.19404514  0.59558622     0.83900
O487        O  0.46317291  0.22020550  0.61833918    -0.81000
O488        O  0.47242251  0.23822970  0.98499930    -0.78500
C489        C  0.42359942  0.22959255  0.81827375     0.82500
O490        O  0.00017777  0.18663628  0.93405632    -0.79600
O491        O  0.52828581  0.25395956  0.81863652    -0.81100
O492        O  0.02234684  0.33239530  0.86042203    -0.80900
O493        O  0.01112587  0.28093001  0.99082932    -0.79600
Zn494      Zn  0.44394889  0.24566930  0.92420032     1.55700
O495        O  0.49567001  0.31106218  0.79656035    -0.81000
Cd496      Cd  0.00546469  0.30797825  0.92545399     1.59700
Cd497      Cd  0.02471800  0.22478959  0.89881531     1.59600
O498        O  0.05439588  0.30007553  0.93394664    -0.80900
O499        O  0.48642146  0.25783931  0.89276233    -1.91500
Cd500      Cd  0.48377151  0.26769712  0.82720586     1.59900
O501        O  0.06689272  0.24710657  0.92954672    -0.80900
O502        O  0.44965769  0.23648303  0.79774207    -0.79600
C503        C  0.46317713  0.17617805  0.94005406     0.83000
C504        C  0.49827399  0.24917388  0.00212208     0.82600
O505        O  0.41928191  0.23751966  0.85970032    -0.78500
C506        C  0.51452952  0.32998195  0.81781815     0.83400
O507        O  0.44190441  0.19634372  0.92871320    -0.78600
C508        C  0.07386760  0.27710213  0.93898241     0.83600
C509        C  0.03308970  0.22936718  0.80178028     0.83900
O510        O  0.03210422  0.20713080  0.83130633    -0.81000
C511        C  0.15867706  0.31478913  0.69531620     0.80200
N512        N  0.13441941  0.29443187  0.68641214    -0.78100
C513        C  0.10357480  0.30294091  0.69006586     0.82600
N514        N  0.09628157  0.33436043  0.70486959    -0.78100
C515        C  0.12111355  0.35661971  0.71438584     0.82700
N516        N  0.15221955  0.34595422  0.70815263    -0.79800
C517        C  0.16018888  0.27894136  0.95810535     0.80200
N518        N  0.16451913  0.31014890  0.97672077    -0.78100
C519        C  0.13847331  0.33021486  0.98695845     0.82600
N520        N  0.10907561  0.31849478  0.97375489    -0.78100
C521        C  0.10502994  0.28762755  0.95639931     0.82700
N522        N  0.13039840  0.26822291  0.94975656    -0.79800
O523        O  0.33736895  0.21486008  0.65629247    -0.78500
C524        C  0.24850788  0.23259785  0.75692274     0.82500
O525        O  0.23246638  0.19503982  0.66702680    -0.79600
O526        O  0.21630389  0.31754464  0.69644809    -0.81100
O527        O  0.26828983  0.30998247  0.57428733    -0.80900
O528        O  0.33100321  0.23517483  0.58728068    -0.79600
Zn529      Zn  0.29351016  0.22748009  0.67832550     1.55700
O530        O  0.24157264  0.31627807  0.63892474    -0.81000
Cd531      Cd  0.29009614  0.26563189  0.59513380     1.59700
Cd532      Cd  0.22645021  0.24424193  0.64095673     1.59600
O533        O  0.26349341  0.23443821  0.55969758    -0.80900
O534        O  0.27137240  0.26253139  0.65479382    -1.91500
Cd535      Cd  0.26880525  0.30004150  0.70099852     1.59900
O536        O  0.21773002  0.25724686  0.57126274    -0.80900
O537        O  0.24173473  0.26058104  0.74056697    -0.79600
C538        C  0.26149873  0.18610265  0.66008798     0.83000
C539        C  0.34382710  0.21460906  0.61424748     0.82600
O540        O  0.27188819  0.21576083  0.74082444    -0.78500
C541        C  0.24406545  0.32097697  0.59681147     0.83400
O542        O  0.27678499  0.20150027  0.63191588    -0.78600
C543        C  0.24117254  0.25169743  0.54494563     0.83600
C544        C  0.19089583  0.30078411  0.68950563     0.83900
O545        O  0.19219433  0.27139574  0.67515295    -0.81000
O546        O  0.31215606  0.23139961  0.85851488    -0.78500
C547        C  0.24165454  0.26063027  0.00413478     0.82500
O548        O  0.27181258  0.18823105  0.93350838    -0.79600
O549        O  0.19438204  0.27722282  0.89665054    -0.81100
O550        O  0.22501481  0.32133956  0.81504145    -0.80900
O551        O  0.29644766  0.26043737  0.79928545    -0.79600
Zn552      Zn  0.29065835  0.24280011  0.92097991     1.55700
O553        O  0.20943082  0.33920869  0.88291003    -0.81000
Cd554      Cd  0.25292211  0.27960756  0.82893816     1.59700
Cd555      Cd  0.24160544  0.22383076  0.89824766     1.59600
O556        O  0.21648526  0.24816058  0.81721190    -0.80900
O557        O  0.26125730  0.27219525  0.89253008    -1.91500
Cd558      Cd  0.22978528  0.30132182  0.92178006     1.59900
O559        O  0.24325465  0.20497076  0.82917594    -0.80900
O560        O  0.22688887  0.28644346  0.99117268    -0.79600
C561        C  0.30035224  0.18478813  0.95031712     0.83000
C562        C  0.31340196  0.23747212  0.81675401     0.82600
O563        O  0.26333665  0.24767401  0.97985919    -0.78500
C564        C  0.20732645  0.33985494  0.83972704     0.83400
O565        O  0.31946075  0.20871958  0.95152083    -0.78600
C566        C  0.23273028  0.22541576  0.80097405     0.83600
C567        C  0.18481047  0.26207625  0.92985533     0.83900
O568        O  0.19698855  0.23376812  0.93627373    -0.81000
C569        C  0.13834004  0.86467688  0.01732430    -0.02500
C570        C  0.11479593  0.88798433  0.23954946    -0.02500
C571        C  0.38122210  0.60791298  0.01743380    -0.02500
C572        C  0.36143108  0.63953193  0.23824618    -0.02500
C573        C  0.06785624  0.82391039  0.08119700     0.80200
N574        N  0.09750905  0.82933419  0.06185434    -0.78100
C575        C  0.10842946  0.86019525  0.05186115     0.82600
N576        N  0.08805960  0.88556165  0.06388339    -0.78100
C577        C  0.05873798  0.87952783  0.08444777     0.82700
N578        N  0.04930084  0.84907775  0.09259742    -0.79800
C579        C  0.03710603  0.85341297  0.29415684     0.80200
N580        N  0.06825368  0.85589770  0.27859135    -0.78100
C581        C  0.08072527  0.88565737  0.26529761     0.82600
N582        N  0.06190685  0.91288676  0.27378965    -0.78100
C583        C  0.03051870  0.90979030  0.28861820     0.82700
N584        N  0.01911634  0.88023500  0.29763263    -0.79800
C585        C  0.36685470  0.68768924  0.08901164     0.80200
N586        N  0.36098697  0.65835893  0.06676957    -0.78100
C587        C  0.38603600  0.63850115  0.05231542     0.82600
N588        N  0.41661978  0.65021034  0.06092316    -0.78100
C589        C  0.42225217  0.67995069  0.08147089     0.82700
N590        N  0.39723891  0.69787298  0.09568811    -0.79800
C591        C  0.39049327  0.72053674  0.29369129     0.80200
N592        N  0.39043040  0.68884743  0.27757027    -0.78100
C593        C  0.36204280  0.67439895  0.26316243     0.82600
N594        N  0.33406925  0.69156573  0.27125665    -0.78100
C595        C  0.33501984  0.72337950  0.28619842     0.82700
N596        N  0.36312286  0.73707766  0.29595511    -0.79800
C597        C  0.21223890  0.89824296  0.08861723     0.80200
N598        N  0.23004612  0.87144969  0.09131670    -0.78100
C599        C  0.22131436  0.84306681  0.07276107     0.82600
N600        N  0.19207545  0.84052018  0.05068616    -0.78100
C601        C  0.17259674  0.86761327  0.04453496     0.82700
N602        N  0.18372838  0.89686690  0.06350392    -0.79800
C603        C  0.18825695  0.92383704  0.30026717     0.80200
N604        N  0.15877791  0.92109538  0.27992288    -0.78100
C605        C  0.14429371  0.89140706  0.27411487     0.82600
N606        N  0.16030398  0.86463566  0.29196668    -0.78100
C607        C  0.18978314  0.86824180  0.31322197     0.82700
N608        N  0.20308454  0.89763205  0.31636581    -0.79800
C609        C  0.34978153  0.53247687  0.08887357     0.80200
N610        N  0.35100235  0.56276961  0.06720707    -0.78100
C611        C  0.37850863  0.57288393  0.04371019     0.82600
N612        N  0.40362399  0.55079876  0.04221451    -0.78100
C613        C  0.40074511  0.51991663  0.05996742     0.82700
N614        N  0.37429723  0.51212407  0.08290010    -0.79800
C615        C  0.32255478  0.56989744  0.30060057     0.80200
N616        N  0.32746488  0.59939842  0.28137668    -0.78100
C617        C  0.35771941  0.61066865  0.27346306     0.82600
N618        N  0.38319947  0.59146911  0.28861816    -0.78100
C619        C  0.37759736  0.56207193  0.31006396     0.82700
N620        N  0.34732097  0.55188420  0.31497401    -0.79800
C621        C  0.43351326  0.59324575  0.19494085     0.80200
N622        N  0.40276007  0.60151933  0.20520277    -0.78100
C623        C  0.39452546  0.63336990  0.21313924     0.82600
N624        N  0.41803559  0.65713923  0.20602475    -0.78100
C625        C  0.44881654  0.64783969  0.19317410     0.82700
N626        N  0.45544468  0.61624034  0.18923326    -0.79800
C627        C  0.46080227  0.58986335  0.46212613     0.80200
N628        N  0.43080238  0.58566907  0.48297127    -0.78100
C629        C  0.41136131  0.61210776  0.49489581     0.82600
N630        N  0.42249791  0.64207677  0.48054109    -0.78100
C631        C  0.45239035  0.64588491  0.46057177     0.82700
N632        N  0.47100050  0.61991884  0.45299713    -0.79800
O633        O  0.43444641  0.50638666  0.11610058    -0.78500
C634        C  0.51212414  0.99356715  0.25434880     0.82500
O635        O  0.97727099  0.55836862  0.17393269    -0.79600
O636        O  0.04877987  0.97039817  0.13086660    -0.81100
O637        O  0.51723555  0.91950895  0.07442058    -0.80900
O638        O  0.44397873  0.97799824  0.05525771    -0.79600
Zn639      Zn  0.45698598  0.50208423  0.17504234     1.55700
O640        O  0.03607611  0.90899612  0.14454417    -0.81000
Cd641      Cd  0.48823464  0.96122753  0.08276530     1.59700
Cd642      Cd  0.00828199  0.52307204  0.14109148     1.59600
O643        O  0.51997033  0.99032497  0.05225058    -0.80900
O644        O  0.48387506  0.47203273  0.14625543    -1.91500
Cd645      Cd  0.02068598  0.95108203  0.17479452     1.59900
O646        O  0.99973820  0.53602541  0.07123175    -0.80900
O647        O  0.03352967  0.97419164  0.23759869    -0.79600
C648        C  0.44464000  0.56029832  0.18739619     0.83000
C649        C  0.42794722  0.50061012  0.07564861     0.82600
O650        O  0.48769311  0.50698250  0.23161506    -0.78500
C651        C  0.03686941  0.90460766  0.10183933     0.83400
O652        O  0.42825196  0.53621004  0.20015758    -0.78600
C653        C  0.00818340  0.51478019  0.04242102     0.83600
C654        C  0.06430225  0.98674148  0.15799975     0.83900
O655        O  0.05720731  0.51661370  0.16929481    -0.81000
O656        O  0.40274155  0.53536821  0.37272375    -0.78500
C657        C  0.48096355  0.00140462  0.49370717     0.82500
O658        O  0.01329634  0.55292023  0.43459594    -0.79600
O659        O  0.03606463  0.92503198  0.45326246    -0.81100
O660        O  0.48462329  0.94614546  0.29894005    -0.80900
O661        O  0.42353010  0.01868618  0.30540526    -0.79600
Zn662      Zn  0.44068464  0.51846630  0.41230829     1.55700
O663        O  0.01854161  0.93602356  0.35509987    -0.81000
Cd664      Cd  0.46420451  0.99118547  0.32338962     1.59700
Cd665      Cd  0.02482235  0.50742985  0.39695068     1.59600
O666        O  0.49398558  0.02826059  0.31076452    -0.80900
O667        O  0.47031459  0.48998169  0.38481154    -1.91500
Cd668      Cd  0.00191415  0.95601095  0.42015472     1.59900
O669        O  0.04533734  0.50665529  0.32891584    -0.80900
O670        O  0.99946190  0.98709736  0.48037918    -0.79600
C671        C  0.47631336  0.56502911  0.43215557     0.83000
C672        C  0.40266193  0.54028770  0.32993463     0.82600
O673        O  0.45280626  0.51615632  0.48126210    -0.78500
C674        C  0.01255692  0.93514951  0.31341260     0.83400
O675        O  0.46094231  0.55761402  0.39776489    -0.78600
C676        C  0.02507364  0.51562912  0.29959298     0.83600
C677        C  0.05945279  0.94476056  0.45215468     0.83900
O678        O  0.05512221  0.47234884  0.43277159    -0.81000
C679        C  0.09238694  0.96972613  0.17827780     0.80200
N680        N  0.08991117  0.94026184  0.20080521    -0.78100
C681        C  0.11599844  0.91943965  0.20618190     0.82600
N682        N  0.14415088  0.92840581  0.18441007    -0.78100
C683        C  0.14558489  0.95712235  0.16020436     0.82700
N684        N  0.12016978  0.97708278  0.15876741    -0.79800
C685        C  0.09141941  0.93573195  0.47018830     0.80200
N686        N  0.11349706  0.95904406  0.46623014    -0.78100
C687        C  0.14399699  0.95519563  0.47871528     0.82600
N688        N  0.15331659  0.92562273  0.49766637    -0.78100
C689        C  0.13099404  0.90038574  0.50332682     0.82700
N690        N  0.10002026  0.90608150  0.48794320    -0.79800
O691        O  0.17662316  0.96632399  0.09354715    -0.78500
C692        C  0.26193080  0.48832971  0.97526260     0.82500
O693        O  0.23461648  0.94146979  0.14052078    -0.79600
O694        O  0.30712737  0.49726185  0.07418040    -0.81100
O695        O  0.26191367  0.55788808  0.15384356    -0.80900
O696        O  0.19290968  0.49079732  0.15358059    -0.79600
Zn697      Zn  0.21913398  0.97810487  0.05995340     1.55700
O698        O  0.28827858  0.57202959  0.09161204    -0.81000
Cd699      Cd  0.21263142  0.54001723  0.12724911     1.59700
Cd700      Cd  0.25472734  0.99272581  0.15109962     1.59600
O701        O  0.19507552  0.55843310  0.18871326    -0.80900
O702        O  0.23784571  0.01162075  0.09067813    -1.91500
Cd703      Cd  0.27536637  0.52865051  0.05628667     1.59900
O704        O  0.23170214  0.01944004  0.21173773    -0.80900
O705        O  0.28126005  0.50834155  0.99383493    -0.79600
C706        C  0.23088431  0.92870789  0.10088895     0.83000
C707        C  0.17361119  0.97044997  0.13621954     0.82600
O708        O  0.23303115  0.97826397  0.99648898    -0.78500
C709        C  0.28360860  0.57464630  0.13420052     0.83400
O710        O  0.24544361  0.94189497  0.06943793    -0.78600
C711        C  0.21250003  0.04353770  0.22332576     0.83600
C712        C  0.32004305  0.51408471  0.10373128     0.83900
O713        O  0.30646494  0.00986671  0.14577389    -0.81000
O714        O  0.16093997  0.98937996  0.41894752    -0.78500
C715        C  0.20173818  0.54940412  0.26628008     0.82500
O716        O  0.23112353  0.95909610  0.32137159    -0.79600
O717        O  0.27339241  0.58027656  0.33226065    -0.81100
O718        O  0.25349815  0.55558995  0.47644168    -0.80900
O719        O  0.18191627  0.49979756  0.48145614    -0.79600
Zn720      Zn  0.17191042  0.01746535  0.35729504     1.55700
O721        O  0.25460084  0.59173645  0.42244907    -0.81000
Cd722      Cd  0.21703619  0.52418248  0.44323827     1.59700
Cd723      Cd  0.25462717  0.99837287  0.35292493     1.59600
O724        O  0.23305071  0.47990133  0.42176620    -0.80900
O725        O  0.21783944  0.02712010  0.37770950    -1.91500
Cd726      Cd  0.22557772  0.58389223  0.35885782     1.59900
O727        O  0.28321073  0.98629086  0.41044065    -0.80900
O728        O  0.21588142  0.57276337  0.28592632    -0.79600
C729        C  0.20080134  0.95460414  0.31594237     0.83000
C730        C  0.16507277  0.98178656  0.46022050     0.82600
O731        O  0.18693090  0.03213826  0.29220877    -0.78500
C732        C  0.26569117  0.58134368  0.45960643     0.83400
O733        O  0.18003703  0.97454561  0.32932161    -0.78600
C734        C  0.26142302  0.98000199  0.43848833     0.83600
C735        C  0.29116223  0.55935356  0.31375961     0.83900
O736        O  0.28555877  0.02365085  0.31141855    -0.81000
C737        C  0.27807205  0.65498362  0.18032054     0.80200
N738        N  0.27290431  0.62657893  0.16040751    -0.78100
C739        C  0.29514428  0.60318664  0.15925225     0.82600
N740        N  0.32401393  0.60701728  0.18201939    -0.78100
C741        C  0.33064413  0.63599518  0.20453672     0.82700
N742        N  0.30745078  0.66016434  0.20125517    -0.79800
C743        C  0.30955994  0.65699886  0.47209582     0.80200
N744        N  0.28687086  0.63406740  0.46964569    -0.78100
C745        C  0.29168237  0.60289005  0.48057266     0.82600
N746        N  0.32177094  0.59416885  0.49774012    -0.78100
C747        C  0.34614881  0.61761944  0.50350880     0.82700
N748        N  0.33953271  0.64889311  0.48861426    -0.79800
O749        O  0.09504746  0.75591794  0.14397330    -0.78500
C750        C  0.02303113  0.73104444  0.02841125     0.82500
O751        O  0.52595618  0.78431594  0.11390728    -0.79600
O752        O  0.47764873  0.67226904  0.07914762    -0.81100
O753        O  0.98654242  0.69702589  0.19318862    -0.80900
O754        O  0.05548732  0.76636146  0.19157940    -0.79600
Zn755      Zn  0.08569274  0.71927755  0.09029465     1.55700
O756        O  0.49268754  0.65430365  0.14457685    -0.81000
Cd757      Cd  0.03628241  0.71656034  0.18012748     1.59700
Cd758      Cd  0.50750710  0.73903015  0.14554188     1.59600
O759        O  0.05297232  0.70318773  0.23746888    -0.80900
O760        O  0.04601090  0.70724590  0.12253795    -1.91500
Cd761      Cd  0.52989846  0.66262582  0.08851142     1.59900
O762        O  0.50601152  0.74073729  0.22892155    -0.80900
O763        O  0.50685545  0.70023126  0.04115545    -0.79200
C764        C  0.05617176  0.79116086  0.09249137     0.83000
C765        C  0.08323339  0.77315223  0.17623048     0.82600
O766        O  0.05105032  0.74000407  0.04139857    -0.78500
C767        C  0.47604073  0.66790392  0.17576234     0.83400
O768        O  0.07508826  0.76823367  0.08125080    -0.78600
C769        C  0.52422099  0.72165910  0.25412857     0.83600
C770        C  0.45547725  0.69186968  0.09093067     0.83900
O771        O  0.46190476  0.71846267  0.11363221    -0.81000
O772        O  0.47158708  0.74018989  0.48529314    -0.78500
C773        C  0.41693465  0.73673234  0.31804336     0.82500
O774        O  0.00437226  0.68282769  0.43201496    -0.79600
O775        O  0.48788895  0.71962704  0.31182692    -0.81100
O776        O  0.01527114  0.83233943  0.36054205    -0.80900
O777        O  0.99168800  0.80756951  0.47771925    -0.79600
Zn778      Zn  0.44265807  0.74562466  0.42490110     1.55700
O779        O  0.51135124  0.79779575  0.29779715    -0.81000
Cd780      Cd  0.00974231  0.80115904  0.41447721     1.59700
Cd781      Cd  0.03022984  0.72467224  0.40312638     1.59600
O782        O  0.05446390  0.80215156  0.43611871    -0.80900
O783        O  0.48513583  0.75812872  0.39254311    -1.91500
Cd784      Cd  0.47814457  0.76476898  0.32686907     1.59900
O785        O  0.06717293  0.74954740  0.44205900    -0.80900
O786        O  0.43449645  0.75746011  0.29829476    -0.79600
C787        C  0.46384555  0.67705174  0.44154681     0.83000
C788        C  0.49737865  0.75179230  0.50165130     0.82600
O789        O  0.41863745  0.73363052  0.36065574    -0.78500
C790        C  0.51824882  0.82462703  0.31737950     0.83400
O791        O  0.44231123  0.69764271  0.43358220    -0.78600
C792        C  0.07316422  0.78009652  0.44900261     0.83600
C793        C  0.02638332  0.71790996  0.30468126     0.83900
O794        O  0.04795066  0.71770727  0.33518657    -0.81000
C795        C  0.15911993  0.81270389  0.19722029     0.80200
N796        N  0.13522934  0.79164077  0.19099555    -0.78100
C797        C  0.10436703  0.79992666  0.19343483     0.82600
N798        N  0.09655244  0.83164307  0.20515046    -0.78100
C799        C  0.12085559  0.85444159  0.21344230     0.82700
N800        N  0.15224654  0.84442021  0.20726675    -0.79800
C801        C  0.15919307  0.78431944  0.46742077     0.80200
N802        N  0.16313349  0.81529151  0.48701011    -0.78100
C803        C  0.13679914  0.83451481  0.49929498     0.82600
N804        N  0.10727427  0.82238998  0.48635596    -0.78100
C805        C  0.10360674  0.79144914  0.46877200     0.82700
N806        N  0.12945947  0.77293943  0.46061389    -0.79800
O807        O  0.33514407  0.70991642  0.14875721    -0.78500
C808        C  0.24709325  0.73080659  0.25441057     0.82500
O809        O  0.23077364  0.69098712  0.16948225    -0.79600
O810        O  0.21665222  0.81590402  0.19303108    -0.81100
O811        O  0.26474396  0.80351431  0.06687019    -0.80900
O812        O  0.32694133  0.72924353  0.07945626    -0.79600
Zn813      Zn  0.29137849  0.72276576  0.17388227     1.55700
O814        O  0.23924125  0.81231922  0.13200681    -0.81000
Cd815      Cd  0.28539557  0.75878475  0.08857986     1.59700
Cd816      Cd  0.22383867  0.73977377  0.14208231     1.59600
O817        O  0.25617317  0.72710043  0.05807555    -0.80900
O818        O  0.26941918  0.75788638  0.15007752    -1.91500
Cd819      Cd  0.26836991  0.79697344  0.19381169     1.59900
O820        O  0.21140737  0.75094885  0.07324509    -0.80900
O821        O  0.24151742  0.75884799  0.23724436    -0.79600
C822        C  0.25916977  0.68139868  0.15955726     0.83000
C823        C  0.34126349  0.70969179  0.10645962     0.82600
O824        O  0.26982573  0.71290360  0.23842847    -0.78500
C825        C  0.24135963  0.81609580  0.08958527     0.83400
O826        O  0.27299786  0.69595064  0.12909434    -0.78600
C827        C  0.23335741  0.74445907  0.04497333     0.83600
C828        C  0.19119994  0.79882903  0.18999973     0.83900
O829        O  0.19199819  0.76880157  0.17796088    -0.81000
O830        O  0.30846315  0.73233388  0.35262230    -0.78500
C831        C  0.24571400  0.76740263  0.50089199     0.82500
O832        O  0.27063277  0.69193979  0.43673501    -0.79600
O833        O  0.19052253  0.78497751  0.40278245    -0.81100
O834        O  0.22293199  0.82123707  0.30872818    -0.80900
O835        O  0.29287359  0.76280172  0.29463289    -0.79600
Zn836      Zn  0.28958533  0.74507288  0.41540206     1.55700
O837        O  0.21426708  0.84311441  0.37677061    -0.81000
Cd838      Cd  0.24949882  0.77980696  0.32412498     1.59700
Cd839      Cd  0.23900201  0.72603886  0.39858983     1.59600
O840        O  0.21351461  0.74788528  0.31274783    -0.80900
O841        O  0.25872055  0.77304877  0.38758789    -1.91500
Cd842      Cd  0.23111406  0.80504913  0.41780909     1.59900
O843        O  0.24081321  0.70572341  0.32919805    -0.80900
O844        O  0.23165440  0.79366252  0.48813083    -0.79600
C845        C  0.29992897  0.68873965  0.45153391     0.83000
C846        C  0.30920505  0.73915915  0.31111419     0.82600
O847        O  0.26545149  0.75274059  0.47546688    -0.78500
C848        C  0.20896284  0.84203019  0.33412501     0.83400
O849        O  0.31975974  0.71181278  0.44651300    -0.78600
C850        C  0.23058770  0.72490249  0.29887222     0.83600
C851        C  0.18329898  0.76880438  0.43641272     0.83900
O852        O  0.19617664  0.74029773  0.44027183    -0.81000
C853        C  0.13813788  0.86737408  0.53161278    -0.02500
C854        C  0.11393573  0.88738191  0.73610869    -0.02500
C855        C  0.37997925  0.61045933  0.52940996    -0.02500
C856        C  0.36419117  0.64072804  0.73714976    -0.02500
C857        C  0.06239067  0.82971758  0.58771783     0.80200
N858        N  0.09333950  0.83335770  0.57101189    -0.78100
C859        C  0.10723923  0.86354193  0.56485050     0.82600
N860        N  0.08837287  0.88976946  0.57734438    -0.78100
C861        C  0.05786685  0.88506135  0.59510502     0.82700
N862        N  0.04562998  0.85540969  0.59976464    -0.79800
C863        C  0.03681076  0.85891511  0.80038657     0.80200
N864        N  0.06714676  0.85823395  0.78083034    -0.78100
C865        C  0.08046572  0.88669787  0.76375428     0.82600
N866        N  0.06371107  0.91532607  0.77208452    -0.78100
C867        C  0.03311732  0.91499427  0.78986167     0.82700
N868        N  0.02046292  0.88681593  0.80241321    -0.79800
C869        C  0.36991498  0.69207093  0.59779768     0.80200
N870        N  0.36252791  0.66226104  0.57761595    -0.78100
C871        C  0.38649333  0.64105865  0.56354214     0.82600
N872        N  0.41768238  0.65179717  0.57002049    -0.78100
C873        C  0.42463078  0.68218809  0.58805832     0.82700
N874        N  0.40074229  0.70131517  0.60211109    -0.79800
C875        C  0.39168064  0.72311747  0.79087799     0.80200
N876        N  0.39234474  0.69153058  0.77443228    -0.78100
C877        C  0.36415234  0.67542958  0.76313152     0.82600
N878        N  0.33573513  0.69125818  0.77389205    -0.78100
C879        C  0.33577131  0.72319113  0.78892451     0.82700
N880        N  0.36363660  0.73820059  0.79639914    -0.79800
C881        C  0.21249977  0.90084354  0.60336794     0.80200
N882        N  0.23146640  0.87490698  0.60203300    -0.78100
C883        C  0.22328646  0.84702917  0.58197640     0.82600
N884        N  0.19329952  0.84394830  0.56206252    -0.78100
C885        C  0.17247109  0.87037202  0.55929601     0.82700
N886        N  0.18314617  0.89928442  0.58001352    -0.79800
C887        C  0.19232736  0.91875446  0.78991158     0.80200
N888        N  0.16276803  0.91787353  0.76944466    -0.78100
C889        C  0.14393097  0.89040645  0.77015133     0.82600
N890        N  0.15604727  0.86388259  0.79372064    -0.78100
C891        C  0.18562410  0.86587111  0.81531236     0.82700
N892        N  0.20290303  0.89304323  0.81247108    -0.79800
C893        C  0.34893683  0.53467177  0.60195271     0.80200
N894        N  0.35044213  0.56550455  0.58148331    -0.78100
C895        C  0.37715162  0.57514985  0.55563614     0.82600
N896        N  0.40122061  0.55210031  0.55088695    -0.78100
C897        C  0.39808578  0.52096774  0.56765796     0.82700
N898        N  0.37248492  0.51365318  0.59274473    -0.79800
C899        C  0.32995240  0.56176241  0.78140587     0.80200
N900        N  0.33199585  0.59322929  0.76777814    -0.78100
C901        C  0.36008602  0.61039829  0.77042376     0.82600
N902        N  0.38581596  0.59501032  0.79184658    -0.78100
C903        C  0.38247610  0.56352842  0.80832318     0.82700
N904        N  0.35501059  0.54760150  0.80143469    -0.79800
C905        C  0.43734133  0.59412342  0.69623907     0.80200
N906        N  0.40648847  0.60255544  0.70590225    -0.78100
C907        C  0.39795992  0.63446646  0.71309110     0.82600
N908        N  0.42170396  0.65812974  0.70649782    -0.78100
C909        C  0.45274274  0.64878801  0.69464973     0.82700
N910        N  0.45943849  0.61710598  0.69086612    -0.79800
C911        C  0.46475316  0.58951771  0.95582212     0.80200
N912        N  0.43424823  0.58441620  0.97486447    -0.78100
C913        C  0.41353705  0.61021414  0.98505246     0.82600
N914        N  0.42390490  0.64042271  0.97089982    -0.78100
C915        C  0.45413533  0.64507677  0.95251950     0.82700
N916        N  0.47396315  0.61986319  0.94661252    -0.79800
O917        O  0.43415457  0.50630223  0.62004662    -0.78500
C918        C  0.50877105  0.99448080  0.75480736     0.82500
O919        O  0.97590239  0.56293331  0.67150250    -0.79600
O920        O  0.04955850  0.97463703  0.63026349    -0.81100
O921        O  0.51319531  0.91897594  0.57354924    -0.80900
O922        O  0.43851146  0.97944059  0.55635631    -0.79600
Zn923      Zn  0.45845443  0.50215007  0.67686508     1.55700
O924        O  0.03355619  0.91454973  0.65243783    -0.81000
Cd925      Cd  0.48220657  0.95941314  0.58382936     1.59700
Cd926      Cd  0.00623717  0.52531762  0.64034517     1.59600
O927        O  0.51497536  0.98706774  0.55281197    -0.80900
O928        O  0.48409365  0.47176965  0.64679888    -1.91500
Cd929      Cd  0.02126871  0.95822607  0.67682109     1.59900
O930        O  0.99643609  0.53441748  0.56953511    -0.80900
O931        O  0.03440153  0.98158025  0.73859334    -0.79600
C932        C  0.44813794  0.56091877  0.68859605     0.83000
C933        C  0.42546736  0.50070523  0.58048273     0.82600
O934        O  0.49003367  0.50579407  0.73189027    -0.78500
C935        C  0.03639082  0.91027077  0.61001836     0.83400
O936        O  0.43163376  0.53724136  0.70266940    -0.78600
C937        C  0.00464200  0.51210369  0.54210479     0.83600
C938        C  0.06490107  0.98966762  0.65886879     0.83900
O939        O  0.05569599  0.51936269  0.66702722    -0.81000
O940        O  0.40828196  0.54108376  0.87380807    -0.78500
C941        C  0.48459896  0.00622314  0.99551427     0.82500
O942        O  0.01620520  0.55836113  0.93720134    -0.79600
O943        O  0.03433610  0.92269824  0.94335349    -0.81100
O944        O  0.48301485  0.94735694  0.80257573    -0.80900
O945        O  0.42170092  0.02042626  0.80797856    -0.79600
Zn946      Zn  0.44512144  0.52113225  0.91242993     1.55700
O947        O  0.02672158  0.95075248  0.85019620    -0.81000
Cd948      Cd  0.46206165  0.99267551  0.82505697     1.59700
Cd949      Cd  0.02888044  0.51304964  0.89878588     1.59600
O950        O  0.49273997  0.02928992  0.81238802    -0.80900
O951        O  0.47233373  0.49000606  0.88595557    -1.91500
Cd952      Cd  0.99544668  0.95060022  0.91348998     1.59900
O953        O  0.04729499  0.51184571  0.82963455    -0.80900
O954        O  0.00193020  0.98456279  0.97320334    -0.79600
C955        C  0.48229526  0.56503521  0.92737408     0.83000
C956        C  0.40765066  0.54340649  0.83064491     0.82600
O957        O  0.45813822  0.51959923  0.98124791    -0.78500
C958        C  0.01666305  0.94288801  0.81123169     0.83400
O959        O  0.46866182  0.55673597  0.89211487    -0.78600
C960        C  0.02671892  0.52090630  0.80068767     0.83600
C961        C  0.05777054  0.94273534  0.94296471     0.83900
O962        O  0.05953277  0.47723273  0.93237472    -0.81000
C963        C  0.09237339  0.97140299  0.67880017     0.80200
N964        N  0.08939959  0.94110409  0.69918412    -0.78100
C965        C  0.11516011  0.91955810  0.70320344     0.82600
N966        N  0.14325900  0.92873510  0.68134635    -0.78100
C967        C  0.14515071  0.95854814  0.65970218     0.82700
N968        N  0.12024907  0.97905161  0.66020167    -0.79800
C969        C  0.09078174  0.93259172  0.95587843     0.80200
N970        N  0.11393859  0.95307113  0.94291929    -0.78100
C971        C  0.14508239  0.94730402  0.95016415     0.82600
N972        N  0.15401468  0.91914510  0.97319090    -0.78100
C973        C  0.13072767  0.89688389  0.98753188     0.82700
N974        N  0.09902689  0.90410242  0.97703382    -0.79800
O975        O  0.17825705  0.96567386  0.59462547    -0.78500
C976        C  0.26135263  0.48951291  0.48504307     0.82500
O977        O  0.23281637  0.94535429  0.65532899    -0.79600
O978        O  0.30790183  0.49649663  0.59080801    -0.81100
O979        O  0.25805148  0.56441073  0.65697705    -0.80900
O980        O  0.18833303  0.49864497  0.65696291    -0.79600
Zn981      Zn  0.22333125  0.97700135  0.57077304     1.55700
O982        O  0.28792303  0.57245245  0.59562238    -0.81000
Cd983      Cd  0.20889276  0.54706095  0.62861208     1.59700
Cd984      Cd  0.25364335  0.99637191  0.66561190     1.59600
O985        O  0.19359415  0.56128917  0.69603078    -0.80900
O986        O  0.23869896  0.01193269  0.60446218    -1.91500
Cd987      Cd  0.27658989  0.52673194  0.56732337     1.59900
O988        O  0.22703875  0.02143412  0.72245583    -0.80900
O989        O  0.28225613  0.50800384  0.50303179    -0.79600
C990        C  0.23151548  0.93106415  0.61641369     0.83000
C991        C  0.17281982  0.97255668  0.63586713     0.82600
O992        O  0.23795828  0.97632420  0.50828804    -0.78500
C993        C  0.28195497  0.57796396  0.63724475     0.83400
O994        O  0.24951791  0.94195038  0.58660718    -0.78600
C995        C  0.20462395  0.04332457  0.72766395     0.83600
C996        C  0.31922781  0.51621464  0.61848322     0.83900
O997        O  0.30413523  0.01814417  0.65887532    -0.81000
O998        O  0.16607765  0.97352224  0.88418109    -0.78500
C999        C  0.19189937  0.55309111  0.77460805     0.82500
O1000       O  0.23787905  0.94838652  0.81679109    -0.79600
O1001       O  0.27466884  0.56296419  0.78632721    -0.81100
O1002       O  0.25868998  0.55076127  0.94651513    -0.80900
O1003       O  0.18432341  0.49135823  0.94519038    -0.79600
Zn1004     Zn  0.18785245  0.00263565  0.83265448     1.55700
O1005       O  0.26744026  0.58376766  0.88890680    -0.81000
Cd1006     Cd  0.22414233  0.51510513  0.91656642     1.59700
Cd1007     Cd  0.26305476  0.98976771  0.84172816     1.59600
O1008       O  0.24184523  0.46938213  0.90900359    -0.80900
O1009       O  0.22627697  0.02003004  0.85650525    -1.91500
Cd1010     Cd  0.24151667  0.56300371  0.83466345     1.59900
O1011       O  0.28649275  0.98378660  0.90525142    -0.80900
O1012       O  0.20305725  0.57735663  0.79671103    -0.79600
C1013       C  0.21135091  0.94833451  0.79453732     0.83000
C1014       C  0.16672731  0.97166517  0.92748380     0.82600
O1015       O  0.17093775  0.03871977  0.79462350    -0.78500
C1016       C  0.27429633  0.57461448  0.92898028     0.83400
O1017       O  0.19832776  0.97436551  0.78300980    -0.78600
C1018       C  0.26331459  0.97622742  0.93051477     0.83600
C1019       C  0.29951414  0.54545920  0.78683146     0.83900
O1020       O  0.29455724  0.01409551  0.80052713    -0.81000
C1021       C  0.28210782  0.65958877  0.67804570     0.80200
N1022       N  0.27484071  0.63099857  0.66039348    -0.78100
C1023       C  0.29568125  0.60643920  0.65999465     0.82600
N1024       N  0.32539619  0.60951223  0.68084944    -0.78100
C1025       C  0.33375469  0.63850141  0.70234644     0.82700
N1026       N  0.31182652  0.66372119  0.69841003    -0.79800
C1027       C  0.30937038  0.65258710  0.96122566     0.80200
N1028       N  0.28980611  0.62812235  0.94962241    -0.78100
C1029       C  0.29733582  0.59673896  0.95510460     0.82600
N1030       N  0.32691334  0.58919653  0.97519741    -0.78100
C1031       C  0.34815675  0.61403900  0.98902775     0.82700
N1032       N  0.33881808  0.64572418  0.98008435    -0.79800
O1033       O  0.09080555  0.76322696  0.61831365    -0.78500
C1034       C  0.99783066  0.76254345  0.52906418     0.82500
O1035       O  0.52796824  0.78700090  0.61295783    -0.79600
O1036       O  0.47995261  0.67380442  0.58230211    -0.81100
O1037       O  0.00356682  0.66602232  0.68166972    -0.80900
O1038       O  0.07172065  0.75400220  0.68658193    -0.79600
Zn1039     Zn  0.06867030  0.72805361  0.56320499     1.55700
O1040       O  0.49667513  0.65550596  0.64598530    -0.81000
Cd1041     Cd  0.04460622  0.70494202  0.67846405     1.59700
Cd1042     Cd  0.51060182  0.74158051  0.64558493     1.59600
O1043       O  0.04310578  0.70461029  0.74445342    -0.80900
O1044       O  0.03944599  0.71143368  0.61232630    -1.91500
Cd1045     Cd  0.53277321  0.66520015  0.58859255     1.59900
O1046       O  0.50870192  0.74340724  0.72852539    -0.80900
O1047       O  0.50856990  0.70278634  0.54253450    -0.79200
C1048       C  0.04689710  0.79789809  0.59158219     0.83000
C1049       C  0.08722985  0.77212361  0.65997497     0.82600
O1050       O  0.02734464  0.75355032  0.52344441    -0.78500
C1051       C  0.47999254  0.66904143  0.67719886     0.83400
O1052       O  0.06398849  0.77531389  0.57594399    -0.78600
C1053       C  0.52724389  0.72453781  0.75344514     0.83600
C1054       C  0.45822025  0.69364257  0.59441869     0.83900
O1055       O  0.46514427  0.72077213  0.61562498    -0.81000
O1056       O  0.47108759  0.73860526  0.98329934    -0.78500
C1057       C  0.41829816  0.73938386  0.81473886     0.82500
O1058       O  0.99764488  0.69049064  0.92384159    -0.79600
O1059       O  0.49043321  0.72135975  0.81027462    -0.81100
O1060       O  0.03065905  0.82413743  0.86422440    -0.80900
O1061       O  0.01482914  0.77954695  0.98431018    -0.79600
Zn1062     Zn  0.44335207  0.74546051  0.92211626     1.55700
O1063       O  0.51366005  0.79988244  0.79901043    -0.81000
Cd1064     Cd  0.99687533  0.81321601  0.92684749     1.59700
Cd1065     Cd  0.01855569  0.73367893  0.89498590     1.59600
O1066       O  0.04733871  0.80500195  0.94095076    -0.80900
O1067       O  0.48598071  0.75850783  0.89080914    -1.91500
Cd1068     Cd  0.47990933  0.76630653  0.82525906     1.59900
O1069       O  0.06195828  0.75420146  0.92308427    -0.80900
O1070       O  0.43658261  0.75938685  0.79484193    -0.79600
C1071       C  0.46518133  0.67656581  0.93477421     0.83000
C1072       C  0.49700947  0.74952450  0.00018860     0.82600
O1073       O  0.42007983  0.73608794  0.85726111    -0.78500
C1074       C  0.51896485  0.82678742  0.81930754     0.83400
O1075       O  0.44355433  0.69699728  0.92653327    -0.78600
C1076       C  0.06847911  0.78306819  0.93792941     0.83600
C1077       C  0.01408264  0.73763817  0.79199315     0.83900
O1078       O  0.02673276  0.72491684  0.82687267    -0.81000
C1079       C  0.16025076  0.81368728  0.69093633     0.80200
N1080       N  0.13753675  0.79322022  0.67703680    -0.78100
C1081       C  0.10660494  0.80043521  0.67810783     0.82600
N1082       N  0.09700612  0.83069630  0.69583457    -0.78100
C1083       C  0.12043840  0.85361354  0.70919476     0.82700
N1084       N  0.15211781  0.84406504  0.70539800    -0.79800
C1085       C  0.15548045  0.78035504  0.95486813     0.80200
N1086       N  0.16123520  0.81088858  0.97496536    -0.78100
C1087       C  0.13615048  0.83208966  0.98564718     0.82600
N1088       N  0.10618327  0.82234580  0.97205230    -0.78100
C1089       C  0.10064962  0.79227683  0.95318157     0.82700
N1090       N  0.12509015  0.77179239  0.94541328    -0.79800
O1091       O  0.33914208  0.71580852  0.65701572    -0.78500
C1092       C  0.24697825  0.73103682  0.75456935     0.82500
O1093       O  0.23483243  0.69458620  0.66508889    -0.79600
O1094       O  0.21755570  0.81762734  0.69470660    -0.81100
O1095       O  0.26922692  0.81065657  0.57479363    -0.80900
O1096       O  0.33289570  0.73612548  0.58792948    -0.79600
Zn1097     Zn  0.29450977  0.72726640  0.67802104     1.55700
O1098       O  0.24216609  0.81549195  0.63927776    -0.81000
Cd1099     Cd  0.29199894  0.76685188  0.59561022     1.59700
Cd1100     Cd  0.22862677  0.74403796  0.64131247     1.59600
O1101       O  0.26547750  0.73623732  0.55916858    -0.80900
O1102       O  0.27325086  0.76284998  0.65506019    -1.91500
Cd1103     Cd  0.26934522  0.79940782  0.70211015     1.59900
O1104       O  0.21877215  0.75691161  0.57250039    -0.80900
O1105       O  0.24077856  0.75921402  0.73844462    -0.79600
C1106       C  0.26390785  0.68632002  0.65734377     0.83000
C1107       C  0.34575568  0.71553553  0.61493934     0.82600
O1108       O  0.27087855  0.71443144  0.73941951    -0.78500
C1109       C  0.24455531  0.82065727  0.59724727     0.83400
O1110       O  0.27871508  0.70238079  0.62939094    -0.78600
C1111       C  0.24190539  0.75225652  0.54540797     0.83600
C1112       C  0.19258068  0.80012208  0.68867493     0.83900
O1113       O  0.19451785  0.77025686  0.67650650    -0.81000
O1114       O  0.30804394  0.73172195  0.85526423    -0.78500
C1115       C  0.23797722  0.76045484  0.00094575     0.82500
O1116       O  0.26898688  0.68804874  0.93134255    -0.79600
O1117       O  0.18922989  0.77674361  0.89288552    -0.81100
O1118       O  0.22001139  0.81996696  0.81210445    -0.80900
O1119       O  0.29243999  0.76193301  0.79710850    -0.79600
Zn1120     Zn  0.28660051  0.74285928  0.91757293     1.55700
O1121       O  0.20613458  0.83874334  0.88022438    -0.81000
Cd1122     Cd  0.24799725  0.77860974  0.82569867     1.59700
Cd1123     Cd  0.23729718  0.72298241  0.89608803     1.59600
O1124       O  0.21261560  0.74612302  0.81263491    -0.80900
O1125       O  0.25642487  0.77118789  0.88915788    -1.91500
Cd1126     Cd  0.22519590  0.80022789  0.91828466     1.59900
O1127       O  0.24006568  0.70375395  0.82695916    -0.80900
O1128       O  0.22284438  0.78597567  0.98782636    -0.79600
C1129       C  0.29790760  0.68534772  0.94737755     0.83000
C1130       C  0.30934890  0.73868643  0.81382858     0.82600
O1131       O  0.25966408  0.74758350  0.97662881    -0.78500
C1132       C  0.20329693  0.83901002  0.83716139     0.83400
O1133       O  0.31637902  0.70980324  0.94811488    -0.78600
C1134       C  0.22987520  0.72364402  0.79773217     0.83600
C1135       C  0.17980218  0.76236546  0.92683090     0.83900
O1136       O  0.19241983  0.73430323  0.93446821    -0.81000
C1137       C  0.63403810  0.36108014  0.01162167    -0.02500
C1138       C  0.61167440  0.39077121  0.25040099    -0.02500
C1139       C  0.88469693  0.11184253  0.01520063    -0.02500
C1140       C  0.86307104  0.14012161  0.24845407    -0.02500
C1141       C  0.56385365  0.32165128  0.07900550     0.80200
N1142       N  0.59298833  0.32632090  0.05742832    -0.78100
C1143       C  0.60440811  0.35693688  0.04713543     0.82600
N1144       N  0.58514340  0.38274044  0.06089378    -0.78100
C1145       C  0.55647798  0.37741231  0.08377520     0.82700
N1146       N  0.54654521  0.34714208  0.09211730    -0.79800
C1147       C  0.53108743  0.35858073  0.29961066     0.80200
N1148       N  0.56316604  0.35975538  0.28721231    -0.78100
C1149       C  0.57744718  0.38907493  0.27572174     0.82600
N1150       N  0.55920129  0.41688943  0.28250409    -0.78100
C1151       C  0.52718653  0.41492121  0.29444645     0.82700
N1152       N  0.51398506  0.38594472  0.30168470    -0.79800
C1153       C  0.86908391  0.19265039  0.08390008     0.80200
N1154       N  0.86340492  0.16327511  0.06170142    -0.78100
C1155       C  0.88856813  0.14256788  0.04985888     0.82600
N1156       N  0.91891349  0.15359232  0.06079031    -0.78100
C1157       C  0.92432712  0.18340124  0.08101983     0.82700
N1158       N  0.89929899  0.20209323  0.09297892    -0.79800
C1159       C  0.89777061  0.21900624  0.30234238     0.80200
N1160       N  0.89540058  0.18748328  0.28629851    -0.78100
C1161       C  0.86599248  0.17486530  0.27292385     0.82600
N1162       N  0.83930943  0.19434190  0.27960744    -0.78100
C1163       C  0.84213978  0.22597237  0.29472733     0.82700
N1164       N  0.87121839  0.23732943  0.30583831    -0.79800
C1165       C  0.70971141  0.39675359  0.07363321     0.80200
N1166       N  0.72938546  0.37109847  0.07438191    -0.78100
C1167       C  0.71999243  0.34189895  0.05876164     0.82600
N1168       N  0.68932633  0.33800305  0.04124968    -0.78100
C1169       C  0.66856108  0.36418922  0.03694736     0.82700
N1170       N  0.67931642  0.39348284  0.05459878    -0.79800
C1171       C  0.68667587  0.42252824  0.31710978     0.80200
N1172       N  0.65678956  0.42130310  0.29648793    -0.78100
C1173       C  0.64224248  0.39211110  0.28525278     0.82600
N1174       N  0.65884371  0.36429926  0.29836937    -0.78100
C1175       C  0.68864791  0.36662039  0.31929662     0.82700
N1176       N  0.70180559  0.39541195  0.32748210    -0.79800
C1177       C  0.85057259  0.03760608  0.07892653     0.80200
N1178       N  0.85487004  0.06829472  0.06140422    -0.78100
C1179       C  0.88299011  0.07738036  0.04079845     0.82600
N1180       N  0.90750900  0.05451754  0.04058254    -0.78100
C1181       C  0.90285110  0.02339173  0.05745058     0.82700
N1182       N  0.87430516  0.01571535  0.07588497    -0.79800
C1183       C  0.82926109  0.06753140  0.31489190     0.80200
N1184       N  0.83198930  0.09750690  0.29508488    -0.78100
C1185       C  0.86138721  0.11042442  0.28407882     0.82600
N1186       N  0.88818383  0.09223367  0.29680820    -0.78100
C1187       C  0.88468238  0.06229639  0.31778219     0.82700
N1188       N  0.85538341  0.05063251  0.32566740    -0.79800
C1189       C  0.93428290  0.09450302  0.19840291     0.80200
N1190       N  0.90377275  0.10221005  0.21145421    -0.78100
C1191       C  0.89497240  0.13402714  0.21941712     0.82600
N1192       N  0.91790955  0.15818672  0.21028962    -0.78100
C1193       C  0.94834543  0.14952138  0.19493093     0.82700
N1194       N  0.95534946  0.11803234  0.19044343    -0.79800
C1195       C  0.97041266  0.09378431  0.45095722     0.80200
N1196       N  0.93928035  0.09015937  0.46831687    -0.78100
C1197       C  0.92006125  0.11683921  0.47951282     0.82600
N1198       N  0.93272971  0.14680203  0.46850683    -0.78100
C1199       C  0.96368943  0.15012652  0.45211536     0.82700
N1200       N  0.98192702  0.12377490  0.44455759    -0.79800
O1201       O  0.93482293  0.00947839  0.11676806    -0.78500
C1202       C  0.02001239  0.49954305  0.25478126     0.82500
O1203       O  0.48069930  0.05704617  0.17128176    -0.79600
O1204       O  0.54653369  0.46846845  0.12992540    -0.81100
O1205       O  0.02083298  0.42086446  0.07679008    -0.80900
O1206       O  0.94780251  0.48225216  0.05655605    -0.79600
Zn1207     Zn  0.95895557  0.00342988  0.17643789     1.55700
O1208       O  0.53463033  0.40751451  0.14444424    -0.81000
Cd1209     Cd  0.99188115  0.46285686  0.08415421     1.59700
Cd1210     Cd  0.50795876  0.02351712  0.13547037     1.59600
O1211       O  0.02520886  0.49196508  0.05653184    -0.80900
O1212       O  0.98596599  0.97402722  0.14680031    -1.91500
Cd1213     Cd  0.51887180  0.44985360  0.17525724     1.59900
O1214       O  0.49554013  0.03513387  0.06644473    -0.80900
O1215       O  0.53001719  0.47503486  0.23869553    -0.79600
C1216       C  0.94643426  0.06159052  0.19103227     0.83000
C1217       C  0.92927173  0.00358873  0.07583216     0.82600
O1218       O  0.99100883  0.00652085  0.23319426    -0.78500
C1219       C  0.53518910  0.40287647  0.10164090     0.83400
O1220       O  0.93044151  0.03714078  0.20358334    -0.78600
C1221       C  0.50219689  0.01275854  0.03841641     0.83600
C1222       C  0.55925933  0.48574029  0.15874409     0.83900
O1223       O  0.55530170  0.01309533  0.16387528    -0.81000
O1224       O  0.91241391  0.03924396  0.37949282    -0.78500
C1225       C  0.98905420  0.50557517  0.49778042     0.82500
O1226       O  0.50521471  0.05270017  0.43631982    -0.79600
O1227       O  0.52594310  0.42381537  0.43803854    -0.81100
O1228       O  0.99143901  0.45176153  0.29981023    -0.80900
O1229       O  0.93005460  0.52363579  0.31087727    -0.79600
Zn1230     Zn  0.95100894  0.02376891  0.41556347     1.55700
O1231       O  0.51486172  0.44913895  0.35462158    -0.81000
Cd1232     Cd  0.97076885  0.49553178  0.32534735     1.59700
Cd1233     Cd  0.51933325  0.00912896  0.39517221     1.59600
O1234       O  0.00183975  0.53183668  0.31403074    -0.80900
O1235       O  0.97501896  0.98970456  0.38914514    -1.91500
Cd1236     Cd  0.47810794  0.44261706  0.41091817     1.59900
O1237       O  0.53894333  0.00629463  0.32640514    -0.80900
O1238       O  0.48951008  0.47745295  0.46900886    -0.79600
C1239       C  0.98721493  0.06811949  0.42336612     0.83000
C1240       C  0.91069110  0.04186915  0.33647318     0.82600
O1241       O  0.96391016  0.02738090  0.48485637    -0.78500
C1242       C  0.50820148  0.44151780  0.31432032     0.83400
O1243       O  0.97291313  0.05875255  0.38916157    -0.78600
C1244       C  0.51760111  0.01237462  0.29709917     0.83600
C1245       C  0.54974455  0.44324098  0.44100534     0.83900
O1246       O  0.55140083  0.97651641  0.42933045    -0.81000
C1247       C  0.58402478  0.47052336  0.18767396     0.80200
N1248       N  0.58438591  0.43817708  0.20213816    -0.78100
C1249       C  0.61203296  0.42435761  0.22030144     0.82600
N1250       N  0.63945865  0.44315588  0.21634610    -0.78100
C1251       C  0.63786263  0.47531089  0.20268926     0.82700
N1252       N  0.61006789  0.48853483  0.19144477    -0.79800
C1253       C  0.58248123  0.43240945  0.45564292     0.80200
N1254       N  0.60516357  0.45518284  0.45003874    -0.78100
C1255       C  0.63616034  0.45021186  0.45914670     0.82600
N1256       N  0.64543373  0.42007579  0.47623497    -0.78100
C1257       C  0.62289185  0.39522464  0.48333523     0.82700
N1258       N  0.59121207  0.40207396  0.47148024    -0.79800
O1259       O  0.67095318  0.48307264  0.14127632    -0.78500
C1260       C  0.74422742  0.99712441  0.01563738     0.82500
O1261       O  0.74938757  0.43260792  0.11318119    -0.79600
O1262       O  0.79690842  0.04746064  0.08881587    -0.81100
O1263       O  0.73712866  0.07495163  0.18892737    -0.80900
O1264       O  0.69519721  0.99661813  0.20680009    -0.79600
Zn1265     Zn  0.70369787  0.49533974  0.09510333     1.55700
O1266       O  0.77843326  0.06846679  0.14321447    -0.81000
Cd1267     Cd  0.73381646  0.02642165  0.18579595     1.59700
Cd1268     Cd  0.77297507  0.47771679  0.14359566     1.59600
O1269       O  0.77772070  0.02042493  0.21769198    -0.80900
O1270       O  0.73979850  0.50905120  0.12705518    -1.91500
Cd1271     Cd  0.74574084  0.04959596  0.08728849     1.59900
O1272       O  0.77190719  0.48958740  0.21787443    -0.80900
O1273       O  0.76544244  0.01319566  0.03660225    -0.79600
C1274       C  0.72169984  0.42810918  0.09307999     0.83000
C1275       C  0.66380289  0.49236041  0.18075611     0.82600
O1276       O  0.71659038  0.49179134  0.02942012    -0.78500
C1277       C  0.76629218  0.08108589  0.17832832     0.83400
O1278       O  0.70265060  0.45103451  0.08721436    -0.78600
C1279       C  0.74425501  0.48705508  0.23699843     0.83600
C1280       C  0.81904554  0.02724415  0.09675301     0.83900
O1281       O  0.81594783  0.49921530  0.11128031    -0.81000
O1282       O  0.65995942  0.48235682  0.40069950    -0.78500
C1283       C  0.73832437  0.01557175  0.27402532     0.82500
O1284       O  0.73109057  0.45487385  0.34795796    -0.79600
O1285       O  0.77589261  0.07423305  0.33363194    -0.81100
O1286       O  0.75510545  0.05915132  0.46558790    -0.80900
O1287       O  0.67225685  0.00315783  0.46414510    -0.79600
Zn1288     Zn  0.67561613  0.52226271  0.35190914     1.55700
O1289       O  0.76679566  0.08220490  0.40023580    -0.81000
Cd1290     Cd  0.71516551  0.02555070  0.44167179     1.59700
Cd1291     Cd  0.75740665  0.49677792  0.37834795     1.59600
O1292       O  0.72837815  0.97742880  0.44410632    -0.80900
O1293       O  0.71810018  0.52494531  0.38339857    -1.91500
Cd1294     Cd  0.72464715  0.07392749  0.34907902     1.59900
O1295       O  0.77275192  0.49160786  0.44809381    -0.80900
O1296       O  0.74454382  0.04438674  0.28788474    -0.79600
C1297       C  0.70126742  0.45242318  0.33432423     0.83000
C1298       C  0.65750044  0.47778067  0.44333259     0.82600
O1299       O  0.70203145  0.50447484  0.28882538    -0.78500
C1300       C  0.77410996  0.07695267  0.44142094     0.83400
O1301       O  0.68215987  0.47610767  0.33494566    -0.78600
C1302       C  0.74843572  0.48443192  0.47170711     0.83600
C1303       C  0.79871512  0.05410188  0.32928828     0.83900
O1304       O  0.79604260  0.52699053  0.34907119    -0.81000
C1305       C  0.78030951  0.16408269  0.19356446     0.80200
N1306       N  0.76593538  0.13552441  0.19327996    -0.78100
C1307       C  0.78263954  0.10833250  0.19885808     0.82600
N1308       N  0.81478026  0.10930501  0.21045422    -0.78100
C1309       C  0.82983564  0.13867065  0.21892693     0.82700
N1310       N  0.81249020  0.16619135  0.20657509    -0.79800
C1311       C  0.81264654  0.15587173  0.45768282     0.80200
N1312       N  0.79201842  0.13114382  0.45249359    -0.78100
C1313       C  0.79984343  0.10007511  0.46040681     0.82600
N1314       N  0.83105516  0.09353055  0.47583851    -0.78100
C1315       C  0.85348310  0.11890754  0.48301111     0.82700
N1316       N  0.84344607  0.14988073  0.47217633    -0.79800
O1317       O  0.59184150  0.25771716  0.14641856    -0.78500
C1318       C  0.51831748  0.22799788  0.03216774     0.82500
O1319       O  0.02876173  0.28647548  0.11463934    -0.79600
O1320       O  0.97907762  0.17483712  0.08059687    -0.81100
O1321       O  0.48323336  0.19569824  0.19117677    -0.80900
O1322       O  0.55193807  0.26743201  0.19342514    -0.79600
Zn1323     Zn  0.58326187  0.21875994  0.09309680     1.55700
O1324       O  0.99223912  0.15668357  0.14588827    -0.81000
Cd1325     Cd  0.53212748  0.21691636  0.18027824     1.59700
Cd1326     Cd  0.00961391  0.24092063  0.14611760     1.59600
O1327       O  0.54407881  0.20090884  0.23803668    -0.80900
O1328       O  0.54378317  0.20537318  0.12446575    -1.91500
Cd1329     Cd  0.03028726  0.16405886  0.08921707     1.59900
O1330       O  0.01018529  0.24279559  0.22960247    -0.80900
O1331       O  0.00920009  0.20359367  0.04238937    -0.79200
C1332       C  0.55228459  0.28916106  0.09171676     0.83000
C1333       C  0.57967930  0.27525364  0.17832709     0.82600
O1334       O  0.54642846  0.23729177  0.04456096    -0.78500
C1335       C  0.97538534  0.17016082  0.17711174     0.83400
O1336       O  0.57168322  0.26646484  0.08228374    -0.78600
C1337       C  0.02893092  0.22314913  0.25311347     0.83600
C1338       C  0.95722854  0.19493141  0.09165728     0.83900
O1339       O  0.96375365  0.22148044  0.11425561    -0.81000
O1340       O  0.96779215  0.24153747  0.48153095    -0.78500
C1341       C  0.92639813  0.23317968  0.32471659     0.82500
O1342       O  0.49328471  0.18293228  0.43755099    -0.79600
O1343       O  0.03285360  0.25810009  0.31255429    -0.81100
O1344       O  0.51682550  0.33014548  0.36478276    -0.80900
O1345       O  0.50755315  0.27846265  0.49236595    -0.79600
Zn1346     Zn  0.95835471  0.24490842  0.41360945     1.55700
O1347       O  0.99890384  0.31444726  0.29458738    -0.81000
Cd1348     Cd  0.49769968  0.30541208  0.42824736     1.59700
Cd1349     Cd  0.51705480  0.22127166  0.40074917     1.59600
O1350       O  0.54624598  0.29553579  0.43502608    -0.80900
O1351       O  0.99665291  0.26272039  0.38874348    -1.91500
Cd1352     Cd  0.98874137  0.27101783  0.32497044     1.59900
O1353       O  0.56027183  0.24317817  0.42771207    -0.80900
O1354       O  0.95214865  0.23896299  0.30249054    -0.79600
C1355       C  0.97600801  0.18086762  0.43376960     0.83000
C1356       C  0.99464388  0.25121769  0.49788151     0.82600
O1357       O  0.92304243  0.24300096  0.36565483    -0.78500
C1358       C  0.02011285  0.33199088  0.31377861     0.83400
O1359       O  0.95613470  0.19838661  0.41341989    -0.78600
C1360       C  0.56672376  0.27322938  0.43710214     0.83600
C1361       C  0.52660549  0.22693704  0.30404641     0.83900
O1362       O  0.52363400  0.20453549  0.33310828    -0.81000
C1363       C  0.65545119  0.31788570  0.19766375     0.80200
N1364       N  0.63192087  0.29657568  0.18951079    -0.78100
C1365       C  0.60074502  0.30335659  0.19540938     0.82600
N1366       N  0.59260282  0.33413870  0.21251378    -0.78100
C1367       C  0.61667532  0.35759394  0.22123322     0.82700
N1368       N  0.64794975  0.34864827  0.21198549    -0.79800
C1369       C  0.65389547  0.27926758  0.44681250     0.80200
N1370       N  0.65716265  0.31050339  0.46592121    -0.78100
C1371       C  0.63051871  0.32893501  0.47919371     0.82600
N1372       N  0.60136093  0.31545653  0.46933702    -0.78100
C1373       C  0.59826384  0.28476597  0.45113839     0.82700
N1374       N  0.62430696  0.26706468  0.44058645    -0.79800
O1375       O  0.83949013  0.21815121  0.14304238    -0.78500
C1376       C  0.75257181  0.23906017  0.24930347     0.82500
O1377       O  0.73431070  0.19845709  0.17195834    -0.79600
O1378       O  0.71272217  0.32377420  0.19548429    -0.81100
O1379       O  0.76602142  0.30558355  0.05824349    -0.80900
O1380       O  0.82762526  0.23239815  0.07248341    -0.79600
Zn1381     Zn  0.79708034  0.23201951  0.17098715     1.55700
O1382       O  0.73247024  0.30701721  0.11679977    -0.81000
Cd1383     Cd  0.78604913  0.26142477  0.08242362     1.59700
Cd1384     Cd  0.72520424  0.24535703  0.14092208     1.59600
O1385       O  0.75613046  0.22705398  0.05971910    -0.80900
O1386       O  0.77170953  0.26412014  0.14463998    -1.91500
Cd1387     Cd  0.76270921  0.30567271  0.18197709     1.59900
O1388       O  0.71079865  0.25037546  0.07167191    -0.80900
O1389       O  0.74288194  0.26508381  0.22969769    -0.79600
C1390       C  0.76316790  0.18826648  0.16555645     0.83000
C1391       C  0.84360927  0.21509847  0.10044546     0.82600
O1392       O  0.77834347  0.22467053  0.23613978    -0.78500
C1393       C  0.73966960  0.31527279  0.07689429     0.83400
O1394       O  0.77846005  0.20023786  0.13420522    -0.78600
C1395       C  0.73307948  0.24302363  0.04446291     0.83600
C1396       C  0.68830936  0.30572689  0.18925796     0.83900
O1397       O  0.69106381  0.27649516  0.17362852    -0.81000
O1398       O  0.81251240  0.23720357  0.35830107    -0.78500
C1399       C  0.73627401  0.25808473  0.49894684     0.82500
O1400       O  0.77201373  0.19026930  0.42616474    -0.79600
O1401       O  0.69021370  0.27885604  0.38725081    -0.81100
O1402       O  0.72602639  0.32356007  0.31225902    -0.80900
O1403       O  0.79885614  0.26584946  0.29802312    -0.79600
Zn1404     Zn  0.78879303  0.24574106  0.41854919     1.55700
O1405       O  0.70955793  0.33855057  0.38119057    -0.81000
Cd1406     Cd  0.75407862  0.28287605  0.32563733     1.59700
Cd1407     Cd  0.74012580  0.22537158  0.39120059     1.59600
O1408       O  0.71820246  0.25249260  0.30819499    -0.80900
O1409       O  0.75905204  0.27333788  0.38936086    -1.91500
Cd1410     Cd  0.72600547  0.29955709  0.41776720     1.59900
O1411       O  0.74585156  0.20991746  0.32072914    -0.80900
O1412       O  0.72018059  0.28279585  0.48535049    -0.79600
C1413       C  0.80052851  0.18815301  0.44387481     0.83000
C1414       C  0.81564938  0.24349115  0.31700361     0.82600
O1415       O  0.75970822  0.24710637  0.47608786    -0.78500
C1416       C  0.70768499  0.34020821  0.33817807     0.83400
O1417       O  0.81806063  0.21314591  0.44796851    -0.78600
C1418       C  0.73599755  0.23083777  0.29259346     0.83600
C1419       C  0.67964127  0.26291655  0.41906412     0.83900
O1420       O  0.69315729  0.23514956  0.42627527    -0.81000
C1421       C  0.63125496  0.36180793  0.51067407    -0.02500
C1422       C  0.61359655  0.38812141  0.74969810    -0.02500
C1423       C  0.88732571  0.11486028  0.51052136    -0.02500
C1424       C  0.86418791  0.14109289  0.75112619    -0.02500
C1425       C  0.56380886  0.32133704  0.58112869     0.80200
N1426       N  0.59240737  0.32659574  0.55873552    -0.78100
C1427       C  0.60233295  0.35736225  0.54686399     0.82600
N1428       N  0.58210765  0.38268454  0.55985063    -0.78100
C1429       C  0.55392405  0.37662165  0.58345099     0.82700
N1430       N  0.54551522  0.34629192  0.59343832    -0.79800
C1431       C  0.53118502  0.35732496  0.79565044     0.80200
N1432       N  0.56336517  0.35783401  0.78359379    -0.78100
C1433       C  0.57885109  0.38693523  0.77398155     0.82600
N1434       N  0.56163386  0.41516494  0.78237612    -0.78100
C1435       C  0.52952148  0.41394405  0.79415982     0.82700
N1436       N  0.51514971  0.38525725  0.79946214    -0.79800
C1437       C  0.86945496  0.19551110  0.57907293     0.80200
N1438       N  0.86456195  0.16623851  0.55612501    -0.78100
C1439       C  0.89010447  0.14576165  0.54519765     0.82600
N1440       N  0.92002802  0.15663503  0.55806809    -0.78100
C1441       C  0.92464246  0.18619922  0.57951360     0.82700
N1442       N  0.89937084  0.20473390  0.59027583    -0.79800
C1443       C  0.89969158  0.22181593  0.79660465     0.80200
N1444       N  0.89694387  0.18964990  0.78389593    -0.78100
C1445       C  0.86731343  0.17629136  0.77333350     0.82600
N1446       N  0.84068243  0.19540782  0.78064302    -0.78100
C1447       C  0.84365965  0.22737777  0.79382412     0.82700
N1448       N  0.87295618  0.23980991  0.80127581    -0.79800
C1449       C  0.70644653  0.39846654  0.57078910     0.80200
N1450       N  0.72704005  0.37363230  0.56969434    -0.78100
C1451       C  0.71841174  0.34403675  0.55493138     0.82600
N1452       N  0.68749364  0.33934422  0.53846842    -0.78100
C1453       C  0.66594095  0.36513477  0.53514301     0.82700
N1454       N  0.67575792  0.39446504  0.55355195    -0.79800
C1455       C  0.68611083  0.42025668  0.82038195     0.80200
N1456       N  0.65660263  0.41875585  0.79882486    -0.78100
C1457       C  0.64333596  0.38941042  0.78552691     0.82600
N1458       N  0.66060723  0.36179421  0.79762363    -0.78100
C1459       C  0.68989366  0.36455305  0.81972042     0.82700
N1460       N  0.70194483  0.39346132  0.82971428    -0.79800
C1461       C  0.85191976  0.04159177  0.57459566     0.80200
N1462       N  0.85671717  0.07205157  0.55678195    -0.78100
C1463       C  0.88513010  0.08070663  0.53677424     0.82600
N1464       N  0.90956797  0.05770883  0.53812305    -0.78100
C1465       C  0.90433194  0.02680668  0.55554800     0.82700
N1466       N  0.87543550  0.01945373  0.57281796    -0.79800
C1467       C  0.82933240  0.07400269  0.82571904     0.80200
N1468       N  0.83339521  0.10324692  0.80467159    -0.78100
C1469       C  0.86287657  0.11290417  0.78871093     0.82600
N1470       N  0.88864007  0.09236162  0.79822978    -0.78100
C1471       C  0.88400204  0.06364184  0.82155396     0.82700
N1472       N  0.85454925  0.05502551  0.83412179    -0.79800
C1473       C  0.93525858  0.09639326  0.70123326     0.80200
N1474       N  0.90466779  0.10367977  0.71410348    -0.78100
C1475       C  0.89571918  0.13532818  0.72144088     0.82600
N1476       N  0.91819899  0.15966032  0.71104293    -0.78100
C1477       C  0.94875113  0.15124600  0.69587288     0.82700
N1478       N  0.95606654  0.11983765  0.69261125    -0.79800
C1479       C  0.96737748  0.09279932  0.95419655     0.80200
N1480       N  0.93668573  0.08819733  0.97241820    -0.78100
C1481       C  0.91656238  0.11425844  0.98300268     0.82600
N1482       N  0.92775844  0.14451803  0.97079843    -0.78100
C1483       C  0.95824829  0.14884310  0.95351840     0.82700
N1484       N  0.97749948  0.12315935  0.94639864    -0.79800
O1485       O  0.93495196  0.01350066  0.61679464    -0.78500
C1486       C  0.02072997  0.50439082  0.75650859     0.82500
O1487       O  0.47511598  0.05668456  0.66668942    -0.79600
O1488       O  0.54757328  0.46453182  0.62841764    -0.81100
O1489       O  0.01885342  0.42025824  0.58442394    -0.80900
O1490       O  0.94550416  0.47928929  0.56146009    -0.79600
Zn1491     Zn  0.95859430  0.00719490  0.67728017     1.55700
O1492       O  0.53166411  0.40556202  0.64456394    -0.81000
Cd1493     Cd  0.98967239  0.46192642  0.58958423     1.59700
Cd1494     Cd  0.50177912  0.02212182  0.63329846     1.59600
O1495       O  0.02181680  0.48979514  0.55740061    -0.80900
O1496       O  0.98607424  0.97903011  0.64867553    -1.91500
Cd1497     Cd  0.51890963  0.44874954  0.67471777     1.59900
O1498       O  0.49030861  0.03207254  0.56351434    -0.80900
O1499       O  0.53239829  0.47368407  0.73719320    -0.79600
C1500       C  0.94701703  0.06388032  0.69363683     0.83000
C1501       C  0.93001308  0.00701028  0.57582859     0.82600
O1502       O  0.99026612  0.01141889  0.73448752    -0.78500
C1503       C  0.53201414  0.40131234  0.60170096     0.83400
O1504       O  0.93007734  0.03959744  0.70384400    -0.78600
C1505       C  0.49770605  0.00904316  0.53690321     0.83600
C1506       C  0.56201429  0.48211883  0.65514528     0.83900
O1507       O  0.54929302  0.01543725  0.66129941    -0.81000
O1508       O  0.91043034  0.03576026  0.88006375    -0.78500
C1509       C  0.99217138  0.50930340  0.99811671     0.82500
O1510       O  0.50805228  0.05154646  0.93421902    -0.79600
O1511       O  0.52985645  0.42336717  0.94204769    -0.81100
O1512       O  0.99246135  0.45633879  0.80114654    -0.80900
O1513       O  0.93170186  0.52759342  0.81236221    -0.79600
Zn1514     Zn  0.94949404  0.02109323  0.91483392     1.55700
O1515       O  0.51951878  0.44847879  0.85498289    -0.81000
Cd1516     Cd  0.97327746  0.50076721  0.82726844     1.59700
Cd1517     Cd  0.51703331  0.00613449  0.89504562     1.59600
O1518       O  0.00385248  0.53751353  0.81528094    -0.80900
O1519       O  0.97418112  0.99001226  0.88596285    -1.91500
Cd1520     Cd  0.48455002  0.44510348  0.91404397     1.59900
O1521       O  0.53678716  0.00511425  0.82619558    -0.80900
O1522       O  0.49551629  0.48105381  0.97083648    -0.79600
C1523       C  0.98433622  0.06758608  0.92639210     0.83000
C1524       C  0.90929998  0.04136813  0.83758053     0.82600
O1525       O  0.96314365  0.02146964  0.98324334    -0.78500
C1526       C  0.51138709  0.44064037  0.81522818     0.83400
O1527       O  0.96987026  0.05831869  0.89224627    -0.78600
C1528       C  0.51565292  0.01294324  0.79744288     0.83600
C1529       C  0.55378363  0.44274702  0.94249064     0.83900
O1530       O  0.54831047  0.97069877  0.92904190    -0.81000
C1531       C  0.58806465  0.46676017  0.68232996     0.80200
N1532       N  0.58775807  0.43520671  0.69969569    -0.78100
C1533       C  0.61508244  0.42146848  0.71914623     0.82600
N1534       N  0.64293931  0.44006405  0.71619399    -0.78100
C1535       C  0.64240005  0.47115274  0.69825491     0.82700
N1536       N  0.61500171  0.48372003  0.68320551    -0.79800
C1537       C  0.58657623  0.43214849  0.95643171     0.80200
N1538       N  0.60949679  0.45454764  0.94977113    -0.78100
C1539       C  0.64055206  0.44918061  0.95824419     0.82600
N1540       N  0.64949071  0.41898804  0.97589918    -0.78100
C1541       C  0.62651795  0.39457947  0.98392387     0.82700
N1542       N  0.59496836  0.40190461  0.97260807    -0.79800
O1543       O  0.66863765  0.50404492  0.64505010    -0.78500
C1544       C  0.74362104  0.00117763  0.51127559     0.82500
O1545       O  0.74732669  0.43364618  0.60489209    -0.79600
O1546       O  0.79997513  0.05405675  0.59030230    -0.81100
O1547       O  0.74865104  0.05980580  0.71545271    -0.80900
O1548       O  0.67278606  0.02105033  0.69377030    -0.79600
Zn1549     Zn  0.70432772  0.49445571  0.60254161     1.55700
O1550       O  0.76286915  0.08091676  0.65026297    -0.81000
Cd1551     Cd  0.72039240  0.02253845  0.68604859     1.59700
Cd1552     Cd  0.76940648  0.47321115  0.64488046     1.59600
O1553       O  0.72289427  0.97742791  0.71570546    -0.80900
O1554       O  0.74165177  0.50924335  0.63007354    -1.91500
Cd1555     Cd  0.75042699  0.05500316  0.58793281     1.59900
O1556       O  0.75390192  0.47248928  0.71772380    -0.80900
O1557       O  0.76237471  0.02082217  0.53053127    -0.79600
C1558       C  0.71746555  0.42846285  0.59416902     0.83000
C1559       C  0.67033911  0.49029121  0.68365473     0.82600
O1560       O  0.71390546  0.49453208  0.53493582    -0.78500
C1561       C  0.76464857  0.08019906  0.69270993     0.83400
O1562       O  0.69623809  0.44895218  0.60348948    -0.78600
C1563       C  0.75856373  0.49942736  0.73906024     0.83600
C1564       C  0.82076034  0.03221140  0.59383866     0.83900
O1565       O  0.81438751  0.49665576  0.61797454    -0.81000
O1566       O  0.66537522  0.48023264  0.89886091    -0.78500
C1567       C  0.73011118  0.01288074  0.77740915     0.82500
O1568       O  0.73112652  0.45345771  0.84623038    -0.79600
O1569       O  0.77513143  0.08118237  0.84021443    -0.81100
O1570       O  0.75204999  0.05704393  0.97472242    -0.80900
O1571       O  0.66983926  0.00076274  0.97245274    -0.79600
Zn1572     Zn  0.68112112  0.52057916  0.84848263     1.55700
O1573       O  0.76156802  0.08031648  0.90892536    -0.81000
Cd1574     Cd  0.71155183  0.02554209  0.94885438     1.59700
Cd1575     Cd  0.75930152  0.49461422  0.87544356     1.59600
O1576       O  0.72580910  0.97836493  0.94712991    -0.80900
O1577       O  0.72181393  0.52509316  0.88238556    -1.91500
Cd1578     Cd  0.72461494  0.07244408  0.84975639     1.59900
O1579       O  0.77661425  0.48936661  0.94440294    -0.80900
O1580       O  0.74599721  0.03558870  0.79613610    -0.79600
C1581       C  0.70037664  0.45006426  0.83777657     0.83000
C1582       C  0.66211421  0.47659670  0.94170348     0.82600
O1583       O  0.71261132  0.50127338  0.79199899    -0.78500
C1584       C  0.77004733  0.07528130  0.94975976     0.83400
O1585       O  0.68024391  0.47261861  0.84355529    -0.78600
C1586       C  0.75192660  0.48265373  0.96737987     0.83600
C1587       C  0.79810722  0.06107398  0.83826100     0.83900
O1588       O  0.79676136  0.52286925  0.84308527    -0.81000
C1589       C  0.78190484  0.16256328  0.69418862     0.80200
N1590       N  0.76593014  0.13522284  0.70139910    -0.78100
C1591       C  0.78114452  0.10797497  0.71279286     0.82600
N1592       N  0.81371639  0.10879652  0.72192752    -0.78100
C1593       C  0.83050493  0.13795258  0.72309739     0.82700
N1594       N  0.81434076  0.16456667  0.70562904    -0.79800
C1595       C  0.81121386  0.15356415  0.96056208     0.80200
N1596       N  0.78975894  0.12938964  0.95679934    -0.78100
C1597       C  0.79646536  0.09836193  0.96704894     0.82600
N1598       N  0.82739608  0.09138594  0.98310998    -0.78100
C1599       C  0.85060884  0.11621305  0.98869465     0.82700
N1600       N  0.84168985  0.14708736  0.97586421    -0.79800
O1601       O  0.59232039  0.25566292  0.64700286    -0.78500
C1602       C  0.51737552  0.22932750  0.53322348     0.82500
O1603       O  0.02710738  0.28790990  0.61423699    -0.79600
O1604       O  0.97919112  0.17790156  0.58018863    -0.81100
O1605       O  0.48279171  0.19524658  0.69214215    -0.80900
O1606       O  0.55310380  0.26548762  0.69519877    -0.79600
Zn1607     Zn  0.58269225  0.21810939  0.59289669     1.55700
O1608       O  0.99194684  0.15806972  0.64559662    -0.81000
Cd1609     Cd  0.53191176  0.21570549  0.68142442     1.59700
Cd1610     Cd  0.00911737  0.24252661  0.64648899     1.59600
O1611       O  0.54402675  0.19908551  0.73880598    -0.80900
O1612       O  0.54359924  0.20510634  0.62525917    -1.91500
Cd1613     Cd  0.02989468  0.16542413  0.58900395     1.59900
O1614       O  0.01058008  0.24399860  0.73012083    -0.80900
O1615       O  0.00560835  0.20141756  0.53866647    -0.79200
C1616       C  0.55289232  0.28900689  0.59426054     0.83000
C1617       C  0.58078042  0.27291010  0.67958376     0.82600
O1618       O  0.54566221  0.23820714  0.54545864    -0.78500
C1619       C  0.97547188  0.17170231  0.67711269     0.83400
O1620       O  0.57188030  0.26619396  0.58356447    -0.78600
C1621       C  0.02941865  0.22436114  0.75347198     0.83600
C1622       C  0.95713296  0.19746242  0.59189738     0.83900
O1623       O  0.96321592  0.22363752  0.61548492    -0.81000
O1624       O  0.97513174  0.24229763  0.98393766    -0.78500
C1625       C  0.92823024  0.23578865  0.81913133     0.82500
O1626       O  0.49344756  0.18250791  0.93592745    -0.79600
O1627       O  0.03409487  0.25803067  0.81480003    -0.81100
O1628       O  0.51560741  0.32896830  0.86042019    -0.80900
O1629       O  0.50881035  0.27671995  0.99037829    -0.79600
Zn1630     Zn  0.94906982  0.25023939  0.92329404     1.55700
O1631       O  0.00029778  0.31536731  0.79746156    -0.81000
Cd1632     Cd  0.50096410  0.30390606  0.92562382     1.59700
Cd1633     Cd  0.51825669  0.22079347  0.90087234     1.59600
O1634       O  0.55049941  0.29632508  0.92615760    -0.80900
O1635       O  0.99246439  0.26162955  0.89241818    -1.91500
Cd1636     Cd  0.98979367  0.27152300  0.82693215     1.59900
O1637       O  0.56090703  0.24293642  0.93057095    -0.80900
O1638       O  0.95446118  0.24144805  0.79828265    -0.79600
C1639       C  0.96981996  0.18046354  0.93720081     0.83000
C1640       C  0.00053813  0.25321128  0.00177171     0.82600
O1641       O  0.92421199  0.24425146  0.86019259    -0.78500
C1642       C  0.02032783  0.33348853  0.81784730     0.83400
O1643       O  0.94873194  0.20068030  0.92521499    -0.78600
C1644       C  0.56908164  0.27318498  0.93503142     0.83600
C1645       C  0.52784428  0.22536458  0.80527688     0.83900
O1646       O  0.52657640  0.20288630  0.83433542    -0.81000
C1647       C  0.65709699  0.31467556  0.69678855     0.80200
N1648       N  0.63331054  0.29342662  0.68986323    -0.78100
C1649       C  0.60230435  0.30048396  0.69643148     0.82600
N1650       N  0.59453416  0.33140177  0.71296839    -0.78100
C1651       C  0.61875693  0.35470407  0.72110347     0.82700
N1652       N  0.64996065  0.34560231  0.71114889    -0.79800
C1653       C  0.65619759  0.27810646  0.94802080     0.80200
N1654       N  0.65959881  0.30928153  0.96728483    -0.78100
C1655       C  0.63305612  0.32803871  0.98006422     0.82600
N1656       N  0.60380718  0.31488702  0.96927480    -0.78100
C1657       C  0.60051126  0.28413197  0.95112667     0.82700
N1658       N  0.62653968  0.26613560  0.94128539    -0.79800
O1659       O  0.84009106  0.22135971  0.63804423    -0.78500
C1660       C  0.75616212  0.23921196  0.74880628     0.82500
O1661       O  0.73602895  0.19610359  0.67050556    -0.79600
O1662       O  0.71441694  0.31987026  0.69042659    -0.81100
O1663       O  0.76248228  0.30477599  0.55295108    -0.80900
O1664       O  0.82617708  0.23338576  0.56745784    -0.79600
Zn1665     Zn  0.79712891  0.23169391  0.66695312     1.55700
O1666       O  0.73772465  0.31715406  0.61744221    -0.81000
Cd1667     Cd  0.78405131  0.26144514  0.57869707     1.59700
Cd1668     Cd  0.72475684  0.24245595  0.63894514     1.59600
O1669       O  0.75480675  0.22609803  0.55741377    -0.80900
O1670       O  0.76971545  0.26302954  0.64124456    -1.91500
Cd1671     Cd  0.76650105  0.30479158  0.68102948     1.59900
O1672       O  0.70930149  0.24871216  0.57052424    -0.80900
O1673       O  0.74711020  0.26595700  0.73065787    -0.79600
C1674       C  0.76484179  0.18564113  0.66426753     0.83000
C1675       C  0.84348503  0.21745379  0.59542768     0.82600
O1676       O  0.78102520  0.22421747  0.73372449    -0.78500
C1677       C  0.73929247  0.31855031  0.57465187     0.83400
O1678       O  0.78033248  0.19717796  0.63267209    -0.78600
C1679       C  0.73146905  0.24205509  0.54285719     0.83600
C1680       C  0.68964605  0.30196465  0.68691786     0.83900
O1681       O  0.69157551  0.27229357  0.67318646    -0.81000
O1682       O  0.81448787  0.23662559  0.85844788    -0.78500
C1683       C  0.73830848  0.25828686  0.00017109     0.82500
O1684       O  0.77209047  0.18857970  0.92685016    -0.79600
O1685       O  0.69270101  0.27818596  0.88868759    -0.81100
O1686       O  0.72775163  0.32217946  0.81248500    -0.80900
O1687       O  0.80102454  0.26703210  0.79943893    -0.79600
Zn1688     Zn  0.79027587  0.24415022  0.91913396     1.55700
O1689       O  0.71169609  0.33738128  0.88141489    -0.81000
Cd1690     Cd  0.75627627  0.28246077  0.82676922     1.59700
Cd1691     Cd  0.74190677  0.22430131  0.89085407     1.59600
O1692       O  0.72133004  0.25168951  0.80778348    -0.80900
O1693       O  0.76109910  0.27231728  0.89027429    -1.91500
Cd1694     Cd  0.72857134  0.29906554  0.91852145     1.59900
O1695       O  0.74930118  0.20937940  0.82009034    -0.80900
O1696       O  0.72278709  0.28322895  0.98616944    -0.79600
C1697       C  0.80038197  0.18588051  0.94494376     0.83000
C1698       C  0.81774700  0.24431439  0.81752584     0.82600
O1699       O  0.76134717  0.24630480  0.97734410    -0.78500
C1700       C  0.70936692  0.33860585  0.83842756     0.83400
O1701       O  0.81866343  0.21037801  0.94825505    -0.78600
C1702       C  0.73962289  0.23049561  0.79210634     0.83600
C1703       C  0.68193805  0.26192081  0.92003205     0.83900
O1704       O  0.69499300  0.23382487  0.92617645    -0.81000
C1705       C  0.63364202  0.86168544  0.01257861    -0.02500
C1706       C  0.61516545  0.88675137  0.24952108    -0.02500
C1707       C  0.88722713  0.61310354  0.01524864    -0.02500
C1708       C  0.86583233  0.63810450  0.25203725    -0.02500
C1709       C  0.56380134  0.82201855  0.07915800     0.80200
N1710       N  0.59299127  0.82680661  0.05812414    -0.78100
C1711       C  0.60442195  0.85742497  0.04834950     0.82600
N1712       N  0.58499814  0.88318110  0.06202238    -0.78100
C1713       C  0.55620719  0.87775973  0.08443953     0.82700
N1714       N  0.54628838  0.84745031  0.09239505    -0.79800
C1715       C  0.53382331  0.85250978  0.29418564     0.80200
N1716       N  0.56593075  0.85445013  0.28233550    -0.78100
C1717       C  0.58033512  0.88428773  0.27340763     0.82600
N1718       N  0.56215724  0.91186703  0.28241399    -0.78100
C1719       C  0.53010057  0.90943474  0.29421218     0.82700
N1720       N  0.51686174  0.88002891  0.29862894    -0.79800
C1721       C  0.87106357  0.69329388  0.08520788     0.80200
N1722       N  0.86569998  0.66404943  0.06244669    -0.78100
C1723       C  0.89094471  0.64369163  0.05024380     0.82600
N1724       N  0.92124861  0.65480810  0.06121973    -0.78100
C1725       C  0.92646058  0.68448902  0.08218345     0.82700
N1726       N  0.90131166  0.70283349  0.09454719    -0.79800
C1727       C  0.89549726  0.71949840  0.30448750     0.80200
N1728       N  0.89504725  0.68749153  0.28983684    -0.78100
C1729       C  0.86669631  0.67333391  0.27521134     0.82600
N1730       N  0.83902144  0.69142544  0.28055312    -0.78100
C1731       C  0.84018924  0.72341928  0.29451394     0.82700
N1732       N  0.86837186  0.73672151  0.30538840    -0.79800
C1733       C  0.70955202  0.89715610  0.07129108     0.80200
N1734       N  0.72923382  0.87153983  0.07301252    -0.78100
C1735       C  0.71966999  0.84183058  0.05977976     0.82600
N1736       N  0.68879095  0.83771196  0.04271714    -0.78100
C1737       C  0.66828424  0.86419489  0.03711098     0.82700
N1738       N  0.67910676  0.89364040  0.05343173    -0.79800
C1739       C  0.68666776  0.91982767  0.32123683     0.80200
N1740       N  0.65753464  0.91783084  0.29889985    -0.78100
C1741       C  0.64458553  0.88832284  0.28574613     0.82600
N1742       N  0.66195689  0.86095048  0.29839017    -0.78100
C1743       C  0.69078282  0.86401685  0.32155455     0.82700
N1744       N  0.70249550  0.89313473  0.33178851    -0.79800
C1745       C  0.85326340  0.53806153  0.07673354     0.80200
N1746       N  0.85750929  0.56884156  0.05976896    -0.78100
C1747       C  0.88586803  0.57856024  0.04060708     0.82600
N1748       N  0.91088435  0.55619935  0.04164561    -0.78100
C1749       C  0.90638415  0.52498316  0.05842196     0.82700
N1750       N  0.87751736  0.51665745  0.07526495    -0.79800
C1751       C  0.83101645  0.56954652  0.32362818     0.80200
N1752       N  0.83501432  0.59916265  0.30357914    -0.78100
C1753       C  0.86453144  0.60953680  0.28902804     0.82600
N1754       N  0.89046948  0.58936708  0.29908955    -0.78100
C1755       C  0.88589437  0.56023471  0.32155195     0.82700
N1756       N  0.85632230  0.55088009  0.33265780    -0.79800
C1757       C  0.93766400  0.59381310  0.20191373     0.80200
N1758       N  0.90720427  0.60115259  0.21539664    -0.78100
C1759       C  0.89818396  0.63280159  0.22352926     0.82600
N1760       N  0.92073613  0.65726947  0.21371386    -0.78100
C1761       C  0.95106586  0.64882213  0.19721671     0.82700
N1762       N  0.95831492  0.61742370  0.19305864    -0.79800
C1763       C  0.96843957  0.59070739  0.45445906     0.80200
N1764       N  0.93709288  0.58624494  0.47053178    -0.78100
C1765       C  0.91769658  0.61234903  0.48346902     0.82600
N1766       N  0.93097569  0.64279839  0.47607932    -0.78100
C1767       C  0.96223568  0.64701723  0.46100945     0.82700
N1768       N  0.98028429  0.62088490  0.45098540    -0.79800
O1769       O  0.93786305  0.51082237  0.11854269    -0.78500
C1770       C  0.01675463  0.99786122  0.25329029     0.82500
O1771       O  0.47181966  0.55668718  0.16702933    -0.79600
O1772       O  0.55092263  0.96650025  0.13118055    -0.81100
O1773       O  0.01769677  0.91936427  0.07481878    -0.80900
O1774       O  0.94393807  0.98029487  0.05503077    -0.79600
Zn1775     Zn  0.96223942  0.50390713  0.17818982     1.55700
O1776       O  0.53230068  0.90709740  0.14459842    -0.81000
Cd1777     Cd  0.98792263  0.96083934  0.08288919     1.59700
Cd1778     Cd  0.50081522  0.51992204  0.13532554     1.59600
O1779       O  0.02113624  0.99017913  0.05575744    -0.80900
O1780       O  0.98995885  0.47548988  0.14806003    -1.91500
Cd1781     Cd  0.51937189  0.95098747  0.17360110     1.59900
O1782       O  0.49151339  0.53215471  0.06596604    -0.80900
O1783       O  0.53178968  0.97292515  0.23744461    -0.79600
C1784       C  0.94980514  0.56115729  0.19421396     0.83000
C1785       C  0.93276737  0.50526465  0.07738298     0.82600
O1786       O  0.99410170  0.50728348  0.23458896    -0.78500
C1787       C  0.53466363  0.90331050  0.10186878     0.83400
O1788       O  0.93370495  0.53662376  0.20609388    -0.78600
C1789       C  0.50010098  0.51068703  0.03776230     0.83600
C1790       C  0.56467324  0.98341068  0.15953382     0.83900
O1791       O  0.54864421  0.51488682  0.16316676    -0.81000
O1792       O  0.91198870  0.53273355  0.38078047    -0.78500
C1793       C  0.98786941  0.01150597  0.50100814     0.82500
O1794       O  0.50425907  0.55188403  0.43728197    -0.79600
O1795       O  0.53071291  0.92706130  0.44020549    -0.81100
O1796       O  0.98847388  0.95074952  0.29660591    -0.80900
O1797       O  0.92801762  0.02423402  0.31015663    -0.79600
Zn1798     Zn  0.95133410  0.51921432  0.41573953     1.55700
O1799       O  0.51769757  0.94164065  0.35716397    -0.81000
Cd1800     Cd  0.96844098  0.99507193  0.32493930     1.59700
Cd1801     Cd  0.51650237  0.50856041  0.39522732     1.59600
O1802       O  0.99998997  0.03081871  0.31262389    -0.80900
O1803       O  0.97794146  0.48871866  0.38866622    -1.91500
Cd1804     Cd  0.48073544  0.94091967  0.41493322     1.59900
O1805       O  0.53765169  0.50812066  0.32734355    -0.80900
O1806       O  0.49238983  0.97727359  0.47149360    -0.79600
C1807       C  0.98576074  0.56597169  0.42629690     0.83000
C1808       C  0.91132583  0.53842598  0.33834089     0.82600
O1809       O  0.96375418  0.52057055  0.48415543    -0.78500
C1810       C  0.51095457  0.93540529  0.31634479     0.83400
O1811       O  0.97134499  0.55637972  0.39228890    -0.78600
C1812       C  0.51757388  0.51616740  0.29723182     0.83600
C1813       C  0.55436095  0.94668218  0.44215218     0.83900
O1814       O  0.54704269  0.47328289  0.42859869    -0.81000
C1815       C  0.58970126  0.96739670  0.18733413     0.80200
N1816       N  0.58907628  0.93534575  0.20272653    -0.78100
C1817       C  0.61654647  0.92051719  0.21998140     0.82600
N1818       N  0.64482072  0.93833762  0.21570511    -0.78100
C1819       C  0.64434514  0.97015312  0.20028958     0.82700
N1820       N  0.61680439  0.98393418  0.18852851    -0.79800
C1821       C  0.58717611  0.93583208  0.45587403     0.80200
N1822       N  0.61012216  0.95808422  0.44880396    -0.78100
C1823       C  0.64120574  0.95249658  0.45651183     0.82600
N1824       N  0.65027407  0.92232452  0.47406362    -0.78100
C1825       C  0.62727784  0.89809293  0.48278458     0.82700
N1826       N  0.59563758  0.90554246  0.47187412    -0.79800
O1827       O  0.66885889  0.99951413  0.14209126    -0.78500
C1828       C  0.74487830  0.49525175  0.01316626     0.82500
O1829       O  0.75003870  0.93315854  0.10472678    -0.79600
O1830       O  0.80014154  0.54843827  0.08814721    -0.81100
O1831       O  0.75295972  0.55416355  0.21544210    -0.80900
O1832       O  0.67532056  0.51860117  0.19691908    -0.79600
Zn1833     Zn  0.70498888  0.99389612  0.09921200     1.55700
O1834       O  0.76582535  0.57414433  0.14899552    -0.81000
Cd1835     Cd  0.72280263  0.51773290  0.18737141     1.59700
Cd1836     Cd  0.77012665  0.97435202  0.14306706     1.59600
O1837       O  0.72383514  0.47172236  0.21504935    -0.80900
O1838       O  0.74125656  0.00908883  0.12700739    -1.91500
Cd1839     Cd  0.75030478  0.54922081  0.08719254     1.59900
O1840       O  0.75489855  0.97396744  0.21568233    -0.80900
O1841       O  0.76461588  0.51350302  0.03291375    -0.79600
C1842       C  0.72056330  0.92772910  0.09262568     0.83000
C1843       C  0.67163833  0.98845138  0.18219343     0.82600
O1844       O  0.71576111  0.99478647  0.03221722    -0.78500
C1845       C  0.76859481  0.57410751  0.19136138     0.83400
O1846       O  0.69915647  0.94862475  0.09859190    -0.78600
C1847       C  0.75897891  0.00121662  0.23635620     0.83600
C1848       C  0.82172785  0.52762844  0.09403006     0.83900
O1849       O  0.81386416  0.99921277  0.11608764    -0.81000
O1850       O  0.66576976  0.98219181  0.39594488    -0.78500
C1851       C  0.73159876  0.50719096  0.27667652     0.82500
O1852       O  0.73125626  0.95419403  0.34620173    -0.79600
O1853       O  0.77649991  0.57644757  0.33243840    -0.81100
O1854       O  0.75038958  0.55513442  0.47424463    -0.80900
O1855       O  0.66847045  0.49969557  0.47029238    -0.79600
Zn1856     Zn  0.68068991  0.02126941  0.34375936     1.55700
O1857       O  0.76393072  0.57452146  0.40755279    -0.81000
Cd1858     Cd  0.71095815  0.52294319  0.44801737     1.59700
Cd1859     Cd  0.75846444  0.99689994  0.37292085     1.59600
O1860       O  0.72466408  0.47552810  0.45020378    -0.80900
O1861       O  0.72092139  0.02733726  0.37772147    -1.91500
Cd1862     Cd  0.72764768  0.56717731  0.34798818     1.59900
O1863       O  0.77563648  0.99533929  0.44242354    -0.80900
O1864       O  0.74852489  0.52851329  0.29642219    -0.79600
C1865       C  0.70071429  0.95032055  0.33699691     0.83000
C1866       C  0.66251165  0.97958528  0.43888356     0.82600
O1867       O  0.71364518  0.00148441  0.28994616    -0.78500
C1868       C  0.77040331  0.57095889  0.44924639     0.83400
O1869       O  0.68047437  0.97304566  0.34056940    -0.78600
C1870       C  0.75133169  0.98796308  0.46582440     0.83600
C1871       C  0.79966600  0.55675806  0.33536334     0.83900
O1872       O  0.79558267  0.02348574  0.33836165    -0.81000
C1873       C  0.78374931  0.65765820  0.19289190     0.80200
N1874       N  0.76883079  0.62947259  0.19800893    -0.78100
C1875       C  0.78473045  0.60266610  0.20978186     0.82600
N1876       N  0.81706158  0.60441892  0.22012829    -0.78100
C1877       C  0.83282797  0.63412390  0.22248568     0.82700
N1878       N  0.81590146  0.66051625  0.20552941    -0.79800
C1879       C  0.80964010  0.64970026  0.46044693     0.80200
N1880       N  0.78850868  0.62520521  0.45775030    -0.78100
C1881       C  0.79617109  0.59424038  0.46691529     0.82600
N1882       N  0.82761015  0.58754183  0.48100642    -0.78100
C1883       C  0.85049645  0.61262057  0.48600520     0.82700
N1884       N  0.84072636  0.64348406  0.47388837    -0.79800
O1885       O  0.59201620  0.75624009  0.14323713    -0.78500
C1886       C  0.51701092  0.72838918  0.03013327     0.82500
O1887       O  0.03045950  0.78584938  0.11638433    -0.79600
O1888       O  0.98125699  0.67592337  0.08111500    -0.81100
O1889       O  0.48327885  0.69637765  0.18930965    -0.80900
O1890       O  0.55271770  0.76726319  0.19093959    -0.79600
Zn1891     Zn  0.58207987  0.71850137  0.08946589     1.55700
O1892       O  0.99379229  0.65621567  0.14567572    -0.81000
Cd1893     Cd  0.53278672  0.71754512  0.17868257     1.59700
Cd1894     Cd  0.01187601  0.74051792  0.14871393     1.59600
O1895       O  0.54629744  0.70362422  0.23701562    -0.80900
O1896       O  0.54312816  0.70581673  0.12231791    -1.91500
Cd1897     Cd  0.03225887  0.66449482  0.08927233     1.59900
O1898       O  0.01245898  0.74033211  0.23268513    -0.80900
O1899       O  0.01175616  0.70344020  0.04052018    -0.79200
C1900       C  0.55201521  0.78953237  0.09078236     0.83000
C1901       C  0.58069346  0.77388668  0.17557578     0.82600
O1902       O  0.54505613  0.73778127  0.04251319    -0.78500
C1903       C  0.97789437  0.66928922  0.17823503     0.83400
O1904       O  0.57114310  0.76669745  0.08049461    -0.78600
C1905       C  0.03181679  0.72138960  0.25643190     0.83600
C1906       C  0.95950936  0.69574723  0.09301809     0.83900
O1907       O  0.96604058  0.72170480  0.11694803    -0.81000
O1908       O  0.95268869  0.77172029  0.47900724    -0.78500
C1909       C  0.92239797  0.73510854  0.32826032     0.82500
O1910       O  0.49396040  0.68276094  0.43275400    -0.79600
O1911       O  0.99783970  0.71783714  0.31642621    -0.81100
O1912       O  0.50848325  0.83056056  0.35734463    -0.80900
O1913       O  0.50715856  0.77948331  0.48935462    -0.79600
Zn1914     Zn  0.95561109  0.74469544  0.42197068     1.55700
O1915       O  0.01712473  0.79841531  0.30166007    -0.81000
Cd1916     Cd  0.49812322  0.80518700  0.42370422     1.59700
Cd1917     Cd  0.51942495  0.72374935  0.40043572     1.59600
O1918       O  0.54897469  0.80043724  0.42375842    -0.80900
O1919       O  0.99531074  0.75779627  0.39501942    -1.91500
Cd1920     Cd  0.98640623  0.76272713  0.33077793     1.59900
O1921       O  0.55900748  0.74750161  0.43458898    -0.80900
O1922       O  0.94139893  0.75375999  0.30699116    -0.79600
C1923       C  0.97543685  0.67919316  0.44761296     0.83000
C1924       C  0.97959055  0.78198281  0.49463911     0.82600
O1925       O  0.92389504  0.73255326  0.37102028    -0.78500
C1926       C  0.02380640  0.82585248  0.32005644     0.83400
O1927       O  0.95578292  0.70240757  0.44854474    -0.78600
C1928       C  0.56730397  0.77781417  0.43613360     0.83600
C1929       C  0.51671308  0.71793959  0.30171581     0.83900
O1930       O  0.53722356  0.71539439  0.33325484    -0.81000
C1931       C  0.65809329  0.81254215  0.19716366     0.80200
N1932       N  0.63380063  0.79236626  0.18805375    -0.78100
C1933       C  0.60289187  0.80056272  0.19301616     0.82600
N1934       N  0.59580688  0.83152542  0.20975919    -0.78100
C1935       C  0.62050993  0.85373927  0.22013489     0.82700
N1936       N  0.65167409  0.84353818  0.21215745    -0.79800
C1937       C  0.65450233  0.78024388  0.44888402     0.80200
N1938       N  0.65903473  0.81154389  0.46743085    -0.78100
C1939       C  0.63310990  0.83154359  0.47936642     0.82600
N1940       N  0.60336911  0.81950493  0.46843810    -0.78100
C1941       C  0.59900348  0.78856025  0.45154770     0.82700
N1942       N  0.62440358  0.76941380  0.44253033    -0.79800
O1943       O  0.84073685  0.71803793  0.14446432    -0.78500
C1944       C  0.75320171  0.73478836  0.25061015     0.82500
O1945       O  0.73726001  0.69155697  0.17147654    -0.79600
O1946       O  0.71543283  0.81658529  0.19133892    -0.81100
O1947       O  0.76402027  0.80299064  0.05911057    -0.80900
O1948       O  0.82815601  0.73151742  0.07382791    -0.79600
Zn1949     Zn  0.79663071  0.72737855  0.17085348     1.55700
O1950       O  0.73694849  0.81337249  0.12253911    -0.81000
Cd1951     Cd  0.78545811  0.75912645  0.08349924     1.59700
Cd1952     Cd  0.72552781  0.73891943  0.14208642     1.59600
O1953       O  0.75645338  0.72440159  0.05979552    -0.80900
O1954       O  0.77038170  0.75952793  0.14535875    -1.91500
Cd1955     Cd  0.76759998  0.80102286  0.18508913     1.59900
O1956       O  0.71071502  0.74646333  0.07369142    -0.80900
O1957       O  0.74570482  0.76215201  0.23277611    -0.79600
C1958       C  0.76607857  0.68130411  0.16426255     0.83000
C1959       C  0.84506658  0.71514715  0.10185163     0.82600
O1960       O  0.77772078  0.71885588  0.23615299    -0.78500
C1961       C  0.73996849  0.81598213  0.07998198     0.83400
O1962       O  0.78123299  0.69384498  0.13311849    -0.78600
C1963       C  0.73298636  0.74050045  0.04586338     0.83600
C1964       C  0.69048167  0.79885622  0.18885640     0.83900
O1965       O  0.69209328  0.76872716  0.17672406    -0.81000
O1966       O  0.81023891  0.73162710  0.35830032    -0.78500
C1967       C  0.73547908  0.75572323  0.50090970     0.82500
O1968       O  0.76902798  0.68465775  0.42848957    -0.79600
O1969       O  0.69069152  0.77795791  0.38911330    -0.81100
O1970       O  0.72640207  0.81969228  0.31353945    -0.80900
O1971       O  0.79771754  0.76297088  0.29990087    -0.79600
Zn1972     Zn  0.78701444  0.74006704  0.41938843     1.55700
O1973       O  0.71362460  0.83693033  0.38290883    -0.81000
Cd1974     Cd  0.75331364  0.77876164  0.32720616     1.59700
Cd1975     Cd  0.73832856  0.72114941  0.39278189     1.59600
O1976       O  0.71780001  0.74848158  0.30841355    -0.80900
O1977       O  0.75846296  0.76855474  0.39068481    -1.91500
Cd1978     Cd  0.72756804  0.79692405  0.41910357     1.59900
O1979       O  0.74482313  0.70568785  0.32202941    -0.80900
O1980       O  0.72110646  0.78133886  0.48679091    -0.79600
C1981       C  0.79775715  0.68201418  0.44556871     0.83000
C1982       C  0.81353946  0.73940629  0.31742612     0.82600
O1983       O  0.75818655  0.74280181  0.47825534    -0.78500
C1984       C  0.71014007  0.83780383  0.34004180     0.83400
O1985       O  0.81579978  0.70667382  0.44842140    -0.78600
C1986       C  0.73574172  0.72667875  0.29345348     0.83600
C1987       C  0.67955849  0.76253947  0.42106140     0.83900
O1988       O  0.69170067  0.73399555  0.42793928    -0.81000
C1989       C  0.63491534  0.86469214  0.51070722    -0.02500
C1990       C  0.61365241  0.89143072  0.74969387    -0.02500
C1991       C  0.88433728  0.60865149  0.51347270    -0.02500
C1992       C  0.86245204  0.64028958  0.75312915    -0.02500
C1993       C  0.56506515  0.82493083  0.57729475     0.80200
N1994       N  0.59446334  0.83013009  0.55696375    -0.78100
C1995       C  0.60524548  0.86084216  0.54636033     0.82600
N1996       N  0.58501138  0.88636348  0.55908458    -0.78100
C1997       C  0.55595138  0.88039817  0.58100365     0.82700
N1998       N  0.54677912  0.84995228  0.58923279    -0.79800
C1999       C  0.53410857  0.85532549  0.79722102     0.80200
N2000       N  0.56586638  0.85772057  0.78380279    -0.78100
C2001       C  0.57963854  0.88787091  0.77499773     0.82600
N2002       N  0.56122992  0.91506582  0.78481912    -0.78100
C2003       C  0.52949308  0.91210811  0.79755045     0.82700
N2004       N  0.51683547  0.88254972  0.80267423    -0.79800
C2005       C  0.86254903  0.68738040  0.58203328     0.80200
N2006       N  0.85876233  0.65774140  0.55976494    -0.78100
C2007       C  0.88541308  0.63865361  0.54882961     0.82600
N2008       N  0.91496703  0.65088687  0.56098112    -0.78100
C2009       C  0.91771164  0.68092336  0.58094943     0.82700
N2010       N  0.89183506  0.69796549  0.59160118    -0.79800
C2011       C  0.89373748  0.72054807  0.80604928     0.80200
N2012       N  0.89241138  0.68801344  0.79405440    -0.78100
C2013       C  0.86385799  0.67484221  0.77824273     0.82600
N2014       N  0.83675342  0.69409227  0.78200973    -0.78100
C2015       C  0.83884624  0.72647277  0.79376978     0.82700
N2016       N  0.86744783  0.73899651  0.80340838    -0.79800
C2017       C  0.71034171  0.90052188  0.57350753     0.80200
N2018       N  0.73009521  0.87500172  0.57483828    -0.78100
C2019       C  0.72132089  0.84560937  0.55897102     0.82600
N2020       N  0.69088660  0.84146611  0.54027128    -0.78100
C2021       C  0.66978378  0.86760504  0.53587288     0.82700
N2022       N  0.68020223  0.89696012  0.55381759    -0.79800
C2023       C  0.68811591  0.92433493  0.81637812     0.80200
N2024       N  0.65888362  0.92275939  0.79420471    -0.78100
C2025       C  0.64392273  0.89348189  0.78480563     0.82600
N2026       N  0.65945350  0.86589512  0.80101176    -0.78100
C2027       C  0.68847344  0.86845892  0.82401984     0.82700
N2028       N  0.70208996  0.89735031  0.83054952    -0.79800
C2029       C  0.85121354  0.53437966  0.57853512     0.80200
N2030       N  0.85485620  0.56467878  0.55953396    -0.78100
C2031       C  0.88296573  0.57435327  0.53951221     0.82600
N2032       N  0.90835053  0.55254617  0.54174081    -0.78100
C2033       C  0.90438261  0.52182160  0.56023356     0.82700
N2034       N  0.87581641  0.51338587  0.57788600    -0.79800
C2035       C  0.83064339  0.56783737  0.82235215     0.80200
N2036       N  0.83282959  0.59760987  0.80179654    -0.78100
C2037       C  0.86184625  0.61034205  0.78853220     0.82600
N2038       N  0.88899439  0.59221045  0.79979974    -0.78100
C2039       C  0.88621060  0.56271298  0.82210427     0.82700
N2040       N  0.85715828  0.55112172  0.83218060    -0.79800
C2041       C  0.93570611  0.59844182  0.70040005     0.80200
N2042       N  0.90500802  0.60473572  0.71447075    -0.78100
C2043       C  0.89491149  0.63593710  0.72386822     0.82600
N2044       N  0.91718117  0.66097357  0.71603667    -0.78100
C2045       C  0.94804830  0.65389206  0.70032970     0.82700
N2046       N  0.95620203  0.62286030  0.69368805    -0.79800
C2047       C  0.97067191  0.59657655  0.95455469     0.80200
N2048       N  0.94034130  0.59080606  0.97343554    -0.78100
C2049       C  0.91894837  0.61608940  0.98311508     0.82600
N2050       N  0.92871115  0.64655038  0.97010924    -0.78100
C2051       C  0.95864210  0.65210342  0.95198241     0.82700
N2052       N  0.97905632  0.62725646  0.94498984    -0.79800
O2053       O  0.93686808  0.51147534  0.62058354    -0.78500
C2054       C  0.01647549  0.00416159  0.75441159     0.82500
O2055       O  0.47475460  0.55656217  0.66685871    -0.79600
O2056       O  0.54347784  0.96774906  0.63325556    -0.81100
O2057       O  0.01867796  0.92483624  0.58102699    -0.80900
O2058       O  0.94448891  0.98304025  0.55644855    -0.79600
Zn2059     Zn  0.96200839  0.50756262  0.68034184     1.55700
O2060       O  0.53268890  0.90885929  0.64235072    -0.81000
Cd2061     Cd  0.98856859  0.96562988  0.58551273     1.59700
Cd2062     Cd  0.50248005  0.51857569  0.63376060     1.59600
O2063       O  0.02113887  0.99597492  0.55957875    -0.80900
O2064       O  0.98864110  0.47771518  0.65216385    -1.91500
Cd2065     Cd  0.51405319  0.94930520  0.67540312     1.59900
O2066       O  0.49004119  0.52937807  0.56413412    -0.80900
O2067       O  0.52709297  0.97244922  0.73817700    -0.79600
C2068       C  0.94874965  0.56589559  0.69255503     0.83000
C2069       C  0.93107285  0.50351728  0.58029650     0.82600
O2070       O  0.99470539  0.51236166  0.73649135    -0.78500
C2071       C  0.53358753  0.90497798  0.59949211     0.83400
O2072       O  0.93356196  0.54128739  0.70630573    -0.78600
C2073       C  0.49634516  0.50700422  0.53593380     0.83600
C2074       C  0.55797563  0.98554415  0.65966172     0.83900
O2075       O  0.55164641  0.51147301  0.65951228    -0.81000
O2076       O  0.91496130  0.53841195  0.88223063    -0.78500
C2077       C  0.98912010  0.00732618  0.99636536     0.82500
O2078       O  0.50997361  0.55218731  0.93494445    -0.79600
O2079       O  0.52791911  0.92178831  0.94628946    -0.81100
O2080       O  0.98954361  0.95380941  0.79622375    -0.80900
O2081       O  0.92732602  0.02618742  0.80951762    -0.79600
Zn2082     Zn  0.95519376  0.52500378  0.91662394     1.55700
O2083       O  0.51882355  0.94695583  0.85802997    -0.81000
Cd2084     Cd  0.96816110  0.99784067  0.82268113     1.59700
Cd2085     Cd  0.52004445  0.50763040  0.89448396     1.59600
O2086       O  0.99838210  0.03532567  0.81442459    -0.80900
O2087       O  0.98272060  0.49448372  0.89065683    -1.91500
Cd2088     Cd  0.48443236  0.94542328  0.91773313     1.59900
O2089       O  0.54091504  0.50638712  0.82639492    -0.80900
O2090       O  0.49562642  0.98222928  0.97286047    -0.79600
C2091       C  0.98887942  0.57156523  0.92771971     0.83000
C2092       C  0.91307377  0.54274425  0.83955019     0.82600
O2093       O  0.96749946  0.52554429  0.98497888    -0.78500
C2094       C  0.51028273  0.93811795  0.81890687     0.83400
O2095       O  0.97534530  0.56210231  0.89292167    -0.78600
C2096       C  0.52059317  0.51449503  0.79670511     0.83600
C2097       C  0.55166643  0.94145371  0.94480895     0.83900
O2098       O  0.55093573  0.47237122  0.92820454    -0.81000
C2099       C  0.58326748  0.97071205  0.68803856     0.80200
N2100       N  0.58428349  0.93853208  0.70314347    -0.78100
C2101       C  0.61262903  0.92510775  0.71987488     0.82600
N2102       N  0.63979425  0.94405635  0.71402254    -0.78100
C2103       C  0.63745713  0.97606966  0.69995554     0.82700
N2104       N  0.60927337  0.98889252  0.68994675    -0.79800
C2105       C  0.58465849  0.93181954  0.95869494     0.80200
N2106       N  0.60685167  0.95509432  0.95309144    -0.78100
C2107       C  0.63800776  0.95062288  0.96188359     0.82600
N2108       N  0.64780149  0.92046543  0.97864184    -0.78100
C2109       C  0.62556015  0.89523723  0.98559265     0.82700
N2110       N  0.59390691  0.90164958  0.97396514    -0.79800
O2111       O  0.67070949  0.98484170  0.63880072    -0.78500
C2112       C  0.74219505  0.49703900  0.51791985     0.82500
O2113       O  0.74895885  0.93691174  0.61468368    -0.79600
O2114       O  0.79799506  0.54384479  0.58760825    -0.81100
O2115       O  0.73552576  0.57333639  0.69909634    -0.80900
O2116       O  0.69440386  0.49506387  0.70900152    -0.79600
Zn2117     Zn  0.70305574  0.99942185  0.59336098     1.55700
O2118       O  0.77607502  0.57057661  0.65177051    -0.81000
Cd2119     Cd  0.73368046  0.52495352  0.69018874     1.59700
Cd2120     Cd  0.77187656  0.98288656  0.64412310     1.59600
O2121       O  0.77807471  0.51823063  0.72109782    -0.80900
O2122       O  0.73876971  0.01395486  0.62621155    -1.91500
Cd2123     Cd  0.74885317  0.55026033  0.59203856     1.59900
O2124       O  0.77061613  0.99614915  0.71817326    -0.80900
O2125       O  0.76311692  0.51411690  0.53775452    -0.79600
C2126       C  0.72204693  0.93219064  0.59266958     0.83000
C2127       C  0.66282542  0.99401715  0.67802006     0.82600
O2128       O  0.71569730  0.99620025  0.52781349    -0.78500
C2129       C  0.76421404  0.58094661  0.68825107     0.83400
O2130       O  0.70351658  0.95516150  0.58463155    -0.78600
C2131       C  0.74309772  0.99313130  0.73753905     0.83600
C2132       C  0.81984903  0.52390140  0.59677715     0.83900
O2133       O  0.81445457  0.00368451  0.61032110    -0.81000
O2134       O  0.66061496  0.98346522  0.90310492    -0.78500
C2135       C  0.73845199  0.51394524  0.77738380     0.82500
O2136       O  0.73199577  0.95778975  0.84623434    -0.79600
O2137       O  0.77739410  0.57393390  0.84272615    -0.81100
O2138       O  0.75559862  0.55567676  0.97143726    -0.80900
O2139       O  0.67238044  0.49936157  0.96799455    -0.79600
Zn2140     Zn  0.67445397  0.02390708  0.85402612     1.55700
O2141       O  0.76615395  0.58022460  0.90661006    -0.81000
Cd2142     Cd  0.71538947  0.52254432  0.94624372     1.59700
Cd2143     Cd  0.75691174  0.00015799  0.87692952     1.59600
O2144       O  0.72832385  0.47451564  0.94517251    -0.80900
O2145       O  0.71752594  0.02859953  0.88408773    -1.91500
Cd2146     Cd  0.72554962  0.57145299  0.85345909     1.59900
O2147       O  0.77422192  0.99313068  0.94532004    -0.80900
O2148       O  0.74635956  0.54178879  0.79306199    -0.79600
C2149       C  0.70226240  0.95473515  0.83282934     0.83000
C2150       C  0.65881791  0.97867406  0.94574990     0.82600
O2151       O  0.70106964  0.00819024  0.79071280    -0.78500
C2152       C  0.77381507  0.57464060  0.94759380     0.83400
O2153       O  0.68260761  0.97802379  0.83430785    -0.78600
C2154       C  0.74997321  0.98580687  0.96882602     0.83600
C2155       C  0.80012431  0.55386866  0.83664477     0.83900
O2156       O  0.79456308  0.03049016  0.84759644    -0.81000
C2157       C  0.77914832  0.66326231  0.69764940     0.80200
N2158       N  0.76405620  0.63524285  0.70190055    -0.78100
C2159       C  0.78031016  0.60803502  0.70948427     0.82600
N2160       N  0.81277255  0.60892570  0.71926463    -0.78100
C2161       C  0.82879029  0.63816082  0.72394152     0.82700
N2162       N  0.81179048  0.66530764  0.70891736    -0.79800
C2163       C  0.81229781  0.65411077  0.96188234     0.80200
N2164       N  0.79158786  0.62928168  0.95741627    -0.78100
C2165       C  0.79929900  0.59825116  0.96643701     0.82600
N2166       N  0.83048124  0.59193111  0.98202803    -0.78100
C2167       C  0.85292786  0.61733684  0.98875727     0.82700
N2168       N  0.84302410  0.64822435  0.97703196    -0.79800
O2169       O  0.59378824  0.76055063  0.64286944    -0.78500
C2170       C  0.51827319  0.73099419  0.53104663     0.82500
O2171       O  0.02084826  0.79198380  0.61432840    -0.79600
O2172       O  0.97423804  0.68265801  0.58092075    -0.81100
O2173       O  0.48670611  0.69789025  0.68995412    -0.80900
O2174       O  0.55406873  0.77089065  0.69016311    -0.79600
Zn2175     Zn  0.58475022  0.72217194  0.58896591     1.55700
O2176       O  0.96995366  0.70609064  0.67687320    -0.81000
Cd2177     Cd  0.53549953  0.72052817  0.67822056     1.59700
Cd2178     Cd  0.00240516  0.74374204  0.63693191     1.59600
O2179       O  0.54985371  0.70720576  0.73629664    -0.80900
O2180       O  0.54635084  0.70845930  0.62230737    -1.91500
Cd2181     Cd  0.99696395  0.71738578  0.61241822     1.59900
O2182       O  0.00923904  0.74194156  0.71320267    -0.80900
O2183       O  0.98319830  0.75478731  0.56451870    -0.79200
C2184       C  0.55389543  0.79244736  0.58956525     0.83000
C2185       C  0.58187893  0.77814898  0.67491887     0.82600
O2186       O  0.54649870  0.74059753  0.54240159    -0.78500
C2187       C  0.97487995  0.67693252  0.68780395     0.83400
O2188       O  0.57330581  0.76990142  0.57954230    -0.78600
C2189       C  0.02281719  0.72758028  0.74768731     0.83600
C2190       C  0.94791451  0.69681505  0.59055127     0.83900
O2191       O  0.94785585  0.72529050  0.61083843    -0.81000
O2192       O  0.97635857  0.74254076  0.98395698    -0.78500
C2193       C  0.91965562  0.73738264  0.83033727     0.82500
O2194       O  0.49536410  0.68270785  0.92780680    -0.79600
O2195       O  0.99307226  0.75928318  0.79341884    -0.81100
O2196       O  0.50758906  0.83214005  0.85865068    -0.80900
O2197       O  0.50776926  0.77689744  0.98810265    -0.79600
Zn2198     Zn  0.94365173  0.75527443  0.92955857     1.55700
O2199       O  0.99109175  0.82644035  0.81532254    -0.81000
Cd2200     Cd  0.49937339  0.80444005  0.92387958     1.59700
Cd2201     Cd  0.52038386  0.72402655  0.89814668     1.59600
O2202       O  0.55023297  0.79866511  0.92052814    -0.80900
O2203       O  0.98451734  0.76746468  0.89635470    -1.91500
Cd2204     Cd  0.97040893  0.78407603  0.83756364     1.59900
O2205       O  0.55909839  0.74599582  0.93453562    -0.80900
O2206       O  0.92735684  0.76589405  0.81759202    -0.79600
C2207       C  0.96873002  0.68461116  0.93732180     0.83000
C2208       C  0.00357904  0.75246475  0.99802715     0.82600
O2209       O  0.92780258  0.72762989  0.86913704    -0.78500
C2210       C  0.02016420  0.83290629  0.82585737     0.83400
O2211       O  0.94758312  0.70657293  0.93900475    -0.78600
C2212       C  0.56782843  0.77607450  0.93500072     0.83600
C2213       C  0.51935493  0.71997739  0.80053728     0.83900
O2214       O  0.53961592  0.71672739  0.83212055    -0.81000
C2215       C  0.65808229  0.81877990  0.69704469     0.80200
N2216       N  0.63423084  0.79823400  0.68732191    -0.78100
C2217       C  0.60320191  0.80558901  0.69223779     0.82600
N2218       N  0.59534805  0.83623418  0.70936796    -0.78100
C2219       C  0.61959275  0.85891385  0.72003123     0.82700
N2220       N  0.65102670  0.84942590  0.71247447    -0.79800
C2221       C  0.65474365  0.77899448  0.94944867     0.80200
N2222       N  0.65861816  0.81001591  0.96867892    -0.78100
C2223       C  0.63234248  0.82932363  0.98069213     0.82600
N2224       N  0.60289302  0.81716042  0.96922509    -0.78100
C2225       C  0.59913011  0.78650217  0.95148241     0.82700
N2226       N  0.62485042  0.76780575  0.94221739    -0.79800
O2227       O  0.83467554  0.71454583  0.64060071    -0.78500
C2228       C  0.75310769  0.73948807  0.75262092     0.82500
O2229       O  0.73285064  0.69777160  0.67620965    -0.79600
O2230       O  0.71575245  0.82229808  0.69426165    -0.81100
O2231       O  0.76188212  0.80243158  0.55386868    -0.80900
O2232       O  0.82165272  0.72739562  0.56998863    -0.79600
Zn2233     Zn  0.79381947  0.72978004  0.67028760     1.55700
O2234       O  0.74359996  0.81946025  0.62023392    -0.81000
Cd2235     Cd  0.78225296  0.75896042  0.58142340     1.59700
Cd2236     Cd  0.72327530  0.74392915  0.64231861     1.59600
O2237       O  0.75198844  0.72420385  0.56088216    -0.80900
O2238       O  0.76872750  0.76284346  0.64448986    -1.91500
Cd2239     Cd  0.76699016  0.80445716  0.68601018     1.59900
O2240       O  0.70831816  0.75014003  0.57328971    -0.80900
O2241       O  0.74532154  0.76671972  0.73488819    -0.79600
C2242       C  0.76116970  0.68651943  0.66852199     0.83000
C2243       C  0.83725163  0.70980935  0.59800514     0.82600
O2244       O  0.77727232  0.72350332  0.73739238    -0.78500
C2245       C  0.74202358  0.81941993  0.57747167     0.83400
O2246       O  0.77511939  0.69673622  0.63491038    -0.78600
C2247       C  0.72968894  0.74112379  0.54561449     0.83600
C2248       C  0.69052001  0.80532838  0.68914830     0.83900
O2249       O  0.69171493  0.77573798  0.67508116    -0.81000
O2250       O  0.81062438  0.73613808  0.85875868    -0.78500
C2251       C  0.73749251  0.75704035  0.00227055     0.82500
O2252       O  0.77167367  0.68884380  0.92970682    -0.79600
O2253       O  0.69155537  0.77850887  0.89058368    -0.81100
O2254       O  0.72545145  0.82499658  0.81739096    -0.80900
O2255       O  0.79778584  0.76788864  0.80102537    -0.79600
Zn2256     Zn  0.78885273  0.74470525  0.92056587     1.55700
O2257       O  0.70916223  0.83970105  0.88643342    -0.81000
Cd2258     Cd  0.75369942  0.78420473  0.82991733     1.59700
Cd2259     Cd  0.74066046  0.72506611  0.89447344     1.59600
O2260       O  0.71881357  0.75309966  0.81171535    -0.80900
O2261       O  0.75939239  0.77356457  0.89323755    -1.91500
Cd2262     Cd  0.72645921  0.79989450  0.92208871     1.59900
O2263       O  0.74613799  0.71012682  0.82380308    -0.80900
O2264       O  0.72112097  0.78176948  0.98921208    -0.79600
C2265       C  0.80041173  0.68638357  0.94663239     0.83000
C2266       C  0.81326782  0.74372692  0.81776091     0.82600
O2267       O  0.76073272  0.74615143  0.97892336    -0.78500
C2268       C  0.70734271  0.84181478  0.84339594     0.83400
O2269       O  0.81839942  0.71114413  0.94885160    -0.78600
C2270       C  0.73651741  0.73136406  0.79594648     0.83600
C2271       C  0.68044441  0.76242079  0.92191109     0.83900
O2272       O  0.69354428  0.73446184  0.92895216    -0.81000
loop_ 
_geom_bond_atom_site_label_1 
_geom_bond_atom_site_label_2 
_geom_bond_distance 
_geom_bond_site_symmetry_2 
_ccdc_geom_bond_type 
C1            C7   1.632       .  S
C1           C33   1.646       .  S
C1          C405   1.641   1_554  S
C1          C519   1.641   1_554  S
C2           C13   1.620       .  S
C2           C37   1.617       .  S
C2          C113   1.643       .  S
C2          C231   1.609       .  S
C3           C19   1.643       .  S
C3           C43   1.651       .  S
C3          C345   1.649   1_554  S
C3          C463   1.636   1_554  S
C4           C25   1.620       .  S
C4           C49   1.604       .  S
C4           C55   1.597       .  S
C4          C173   1.632       .  S
C5            N6   1.384       .  A
C5           N10   1.329       .  A
C5          C196   1.476       .  S
N6            C7   1.383       .  A
C7            N8   1.384       .  A
N8            C9   1.389       .  A
C9           N10   1.338       .  A
C9           C83   1.462       .  S
C11          N12   1.383       .  A
C11          N16   1.326       .  A
C11        C1358   1.472       .  S
N12          C13   1.389       .  A
C13          N14   1.387       .  A
N14          C15   1.384       .  A
C15          N16   1.328       .  A
C15         C106   1.470       .  S
C17          N18   1.395       .  A
C17          N22   1.343       .  A
C17         C255   1.485       .  S
N18          C19   1.390       .  A
C19          N20   1.386       .  A
N20          C21   1.386       .  A
C21          N22   1.336       .  A
C21         C202   1.491       .  S
C23          N24   1.381       .  A
C23          N28   1.333       .  A
C23         C205   1.479       .  S
N24          C25   1.389       .  A
C25          N26   1.387       .  A
N26          C27   1.385       .  A
C27          N28   1.333       .  A
C27         C278   1.476       .  S
C29          N30   1.329       .  A
C29          N34   1.404       .  A
C29         C138   1.512       .  S
N30          C31   1.338       .  A
C31          N32   1.387       .  A
C31         C257   1.477       .  S
N32          C33   1.391       .  A
C33          N34   1.402       .  A
C35          N36   1.373       .  A
C35          N40   1.335       .  A
C35         C161   1.445       .  S
N36          C37   1.369       .  A
C37          N38   1.398       .  A
N38          C39   1.393       .  A
C39          N40   1.334       .  A
C39         C280   1.493       .  S
C41          N42   1.404       .  A
C41          N46   1.325       .  A
C41         C144   1.513       .  S
N42          C43   1.403       .  A
C43          N44   1.391       .  A
N44          C45   1.390       .  A
C45          N46   1.334       .  A
C45          C81   1.474   1_545  S
C47          N48   1.365       .  A
C47          N52   1.339       .  A
C47         C167   1.441       .  S
N48          C49   1.368       .  A
C49          N50   1.397       .  A
N50          C51   1.391       .  A
C51          N52   1.335       .  A
C51         C104   1.498       .  S
C53          N54   1.368       .  A
C53          N58   1.326       .  A
C53          C80   1.465       .  S
N54          C55   1.381       .  A
C55          N56   1.398       .  A
N56          C57   1.383       .  A
C57          N58   1.329       .  A
C57         C199   1.492       .  S
C59          N60   1.407       .  A
C59          N64   1.337       .  A
C59         C103   1.503       .  S
N60          C61   1.396       .  A
C61         C287   1.655       .  S
C61          N62   1.383       .  A
N62          C63   1.382       .  A
C63          N64   1.336       .  A
C63         C219   1.475       .  S
O65          C81   1.266       .  A
O65         Zn71   2.061       .  S
C66        C1812   1.506       .  S
C66         O650   1.273       .  A
C66        O1215   1.284       .  A
O67        C1216   1.296       .  A
O67         Cd74   2.178   1_655  S
O68          C86   1.232       .  A
O68         Cd77   1.939       .  S
O69        C1219   1.287       .  A
O69         Cd73   2.111       .  S
O70         C649   1.288       .  A
O70         Cd73   2.155       .  S
Zn71         O82   2.155       .  S
Zn71         O84   2.093   1_565  S
Zn71         O76   1.971       .  S
O72          C83   1.286       .  A
O72         Cd77   2.045       .  S
Cd73         O75   2.012       .  S
Cd73        O644   1.988       .  S
Cd74         O78   2.176   1_455  S
Cd74         O87   2.221       .  S
Cd74       O1212   2.122   1_445  S
O75        C1789   1.253       .  A
O76        Cd641   2.001       .  S
O76       Cd1210   2.014   1_565  S
O76       Cd1781   1.959       .  S
Cd77         O79   2.170       .  S
Cd77       O1780   1.917   1_455  S
O78          C85   1.267   1_655  A
O79        C1202   1.282       .  A
C80          O84   1.260       .  A
C80        O1203   1.283       .  A
C81         O638   1.279       .  A
O82         C634   1.279       .  A
C83        O1205   1.288       .  A
C85        C2077   1.490   1_454  S
C85        O1779   1.250   1_545  A
C86         C111   1.489       .  S
C86         O655   1.284       .  A
O87         C654   1.284   1_545  A
O88         C104   1.292       .  A
O88         Zn94   2.080       .  S
C89        C2073   1.501       .  S
C89         O673   1.291       .  A
C89        O1238   1.278       .  A
O90        C1239   1.288   1_455  A
O90         Cd97   2.234       .  S
O91         C109   1.275       .  A
O91        Cd100   2.219   1_455  S
O92        C1242   1.290       .  A
O92         Cd96   2.138       .  S
O93         C672   1.281       .  A
O93         Cd96   2.105       .  S
Zn94        O105   2.095       .  S
Zn94        O107   1.873       .  S
Zn94         O99   1.892   1_545  S
O95         C106   1.278       .  A
O95        Cd100   2.311   1_455  S
Cd96         O98   2.005       .  S
Cd96        O667   1.957       .  S
Cd97        O101   2.200       .  S
Cd97        O110   2.243   1_545  S
Cd97       O1235   2.145   1_445  S
O98        C1812   1.249       .  A
O99        Cd664   1.952       .  S
O99       Cd1233   2.072   1_565  S
O99       Cd1804   2.126       .  S
Cd100       O102   2.304   1_655  S
Cd100      O1803   2.064       .  S
O101        C108   1.272       .  A
O102       C1225   1.280   1_455  A
C103        O107   1.246       .  A
C103       O1226   1.293       .  A
C104        O661   1.280       .  A
O105        C657   1.288       .  A
C106       O1228   1.292   1_455  A
C108       C1770   1.502   1_545  S
C108       O1802   1.248   1_455  A
C109        C117   1.487       .  S
C109        O678   1.300       .  A
O110        C677   1.306       .  A
C111        N112   1.393       .  A
C111        N116   1.327       .  A
N112        C113   1.393       .  A
C113        N114   1.392       .  A
N114        C115   1.391       .  A
C115        N116   1.336       .  A
C115        C139   1.475       .  S
C117        N118   1.336       .  A
C117        N122   1.377       .  A
N118        C119   1.332       .  A
C119        N120   1.395       .  A
C119        C162   1.507       .  S
N120        C121   1.401       .  A
C121        C285   1.622       .  S
C121        N122   1.389       .  A
O123        C139   1.290       .  A
O123       Zn129   2.095       .  S
C124       C1018   1.465       .  S
C124        O137   1.275   1_565  A
C124        O708   1.285       .  A
O125        C138   1.301       .  A
O125       Cd132   2.284       .  S
O126        C144   1.240   1_565  A
O126       Cd135   1.922   1_565  S
O127        C141   1.277       .  A
O127       Cd131   2.302       .  S
O128        C707   1.280       .  A
O128       Cd131   2.329   1_565  S
Zn129       O140   1.986   1_554  S
Zn129       O142   1.862       .  S
Zn129       O134   1.822       .  S
O130        C141   1.290       .  A
O130       Cd135   2.140       .  S
Cd131       O133   2.121       .  S
Cd131       O702   1.973       .  S
Cd132       O136   2.316       .  S
Cd132       O145   2.281       .  S
Cd132       O134   2.086       .  S
O133        C711   1.275       .  A
O134       Cd703   1.916       .  S
O134       Cd699   1.961       .  S
Cd135       O137   2.062   1_554  S
Cd135       O702   1.923       .  S
O136        C143   1.316       .  A
C138        O142   1.244       .  A
C139        O696   1.276       .  A
O140        C692   1.285       .  A
C141        C171   1.468       .  S
C143        C715   1.483       .  S
C143        O701   1.275       .  A
C144        O713   1.290       .  A
O145        C712   1.291       .  A
O146        C162   1.281       .  A
O146       Zn152   2.215       .  S
C147        C711   1.490       .  S
C147        O160   1.280       .  A
C147        O731   1.269       .  A
O148        C161   1.283       .  A
O148       Cd155   2.109       .  S
O149        C167   1.257       .  A
O149       Cd158   1.995       .  S
O150        C164   1.286       .  A
O150       Cd154   2.217       .  S
O151        C730   1.272       .  A
O151       Cd154   2.114   1_565  S
Zn152       O163   2.137       .  S
Zn152       O165   1.962       .  S
Zn152       O157   2.112       .  S
O153        C164   1.292       .  A
O153       Cd158   2.118       .  S
Cd154       O156   2.031   1_545  S
Cd154       O725   1.985       .  S
Cd155       O159   2.140       .  S
Cd155       O168   2.050       .  S
Cd155       O157   2.072       .  S
O156        C734   1.237       .  A
O157       Cd722   2.043       .  S
O157       Cd726   2.210       .  S
Cd158       O160   2.107       .  S
Cd158       O725   1.977       .  S
O159        C166   1.261       .  A
C161        O165   1.251       .  A
C162        O719   1.269       .  A
O163        C715   1.267       .  A
C164        C177   1.532       .  S
C166        C976   1.454       .  S
C166        O724   1.238       .  A
C167        O736   1.275       .  A
O168        C735   1.273       .  A
C169        N170   1.325       .  A
C169        N174   1.390       .  A
C169        C254   1.481       .  S
N170        C171   1.334       .  A
C171        N172   1.387       .  A
N172        C173   1.390       .  A
C173        N174   1.390       .  A
C175        N176   1.337       .  A
C175        N180   1.375       .  A
C175        C277   1.492       .  S
N176        C177   1.340       .  A
C177        N178   1.400       .  A
N178        C179   1.408       .  A
C179        C287   1.626       .  S
C179        N180   1.388       .  A
O181        C197   1.288       .  A
O181       Zn187   2.231       .  S
C182       C1640   1.496       .  S
C182        O198   1.280       .  A
C182       O1331   1.279       .  A
O183       C1332   1.307       .  A
O183       Cd190   2.246       .  S
O184        C202   1.270       .  A
O184       Cd193   2.223       .  S
O185       C1335   1.275       .  A
O185       Cd189   2.244   1_655  S
O186        C197   1.279       .  A
O186       Cd189   2.261       .  S
Zn187       O198   2.201       .  S
Zn187       O200   2.086       .  S
Zn187       O192   1.979       .  S
O188        C199   1.285       .  A
O188       Cd193   2.305       .  S
Cd189       O191   1.917       .  S
Cd189       O192   1.787       .  S
Cd190       O194   2.496       .  S
Cd190       O203   2.286       .  S
Cd190      O1328   2.125       .  S
O191       C1337   1.283       .  A
O192      Cd1326   2.130       .  S
O192      Cd1329   2.085       .  S
Cd193       O195   2.309       .  S
Cd193      O1328   2.107       .  S
O194        C201   1.326       .  A
O195       C1318   1.276       .  A
C196        O200   1.267       .  A
C196       O1319   1.307       .  A
C197        C229   1.514       .  S
C199       O1321   1.273       .  A
C201       C1361   1.458       .  S
C201       O1327   1.283       .  A
C202        O203   1.312       .  A
O204        C220   1.272       .  A
O204       Zn210   2.186       .  S
C205        O221   1.286       .  A
C205        O218   1.276       .  A
O206       C1355   1.290   1_455  A
O206       Cd213   2.169       .  S
O207       C1361   1.240       .  A
O207       Cd216   1.955       .  S
O208       C1358   1.277       .  A
O208       Cd212   2.306       .  S
O209       C1356   1.270   1_455  A
O209       Cd212   2.254       .  S
Zn210       O221   2.195       .  S
Zn210       O223   2.025       .  S
Zn210       O215   2.054       .  S
O211        C222   1.271       .  A
O211       Cd216   2.057       .  S
Cd212       O214   2.114       .  S
Cd212      O1351   2.131   1_455  S
Cd213       O217   2.187       .  S
Cd213       O226   2.154       .  S
Cd213      O1351   2.028   1_455  S
O214        C224   1.255       .  A
O215       Cd216   2.001       .  S
O215      Cd1349   2.023       .  S
O215      Cd1348   2.211       .  S
Cd216       O218   2.092       .  S
O217        C224   1.299       .  A
C219        O223   1.257       .  A
C219       O1342   1.293       .  A
C220       C1602   1.504       .  S
C220       O1345   1.264       .  A
C222       C1147   1.475       .  S
C222       O1344   1.272       .  A
C224        C237   1.472       .  S
C225       C1337   1.456       .  S
C225        O226   1.274       .  A
C225       O1343   1.235       .  A
C227        N228   1.334       .  A
C227        N232   1.366       .  A
C227        C260   1.473       .  S
N228        C229   1.336       .  A
C229        N230   1.392       .  A
N230        C231   1.404       .  A
C231        N232   1.379       .  A
C233        N234   1.407       .  A
C233        N238   1.340       .  A
C233        C283   1.497       .  S
N234        C235   1.395       .  A
C235        C285   1.651       .  S
C235        N236   1.377       .  A
N236        C237   1.381       .  A
C237        N238   1.336       .  A
O239        C255   1.286       .  A
O239       Zn245   2.020       .  S
C240        C282   1.502       .  S
C240        O256   1.287       .  A
C240        O253   1.283       .  A
O241        C254   1.279       .  A
O241       Cd248   2.198       .  S
O242        C260   1.276       .  A
O242       Cd251   2.310       .  S
O243        C257   1.293       .  A
O243       Cd247   2.145       .  S
O244        C255   1.288       .  A
O244       Cd247   2.131       .  S
Zn245       O256   2.137       .  S
Zn245       O258   1.881       .  S
Zn245       O250   1.850       .  S
O246        C257   1.278       .  A
O246       Cd251   2.283       .  S
Cd247       O249   1.991       .  S
Cd247       O250   1.946       .  S
Cd248       O252   2.175       .  S
Cd248       O261   2.078       .  S
Cd248       O250   2.059       .  S
O249        C259   1.249       .  A
O250       Cd251   2.065       .  S
Cd251       O253   2.299       .  S
O252        C259   1.270       .  A
C254        O258   1.233       .  A
C259        C547   1.487       .  S
C260        O261   1.282       .  A
O262        C278   1.274       .  A
O262       Zn268   2.123       .  S
C263        C543   1.489       .  S
C263        O279   1.271       .  A
C263        O276   1.288       .  A
O264        C277   1.298       .  A
O264       Cd271   2.213       .  S
O265        C283   1.243       .  A
O265       Cd274   1.935       .  S
O266        C280   1.283       .  A
O266       Cd270   2.109       .  S
O267        C278   1.289       .  A
O267       Cd270   2.155       .  S
Zn268       O279   2.107       .  S
Zn268       O281   2.072       .  S
Zn268       O273   1.925       .  S
O269        C280   1.294       .  A
O269       Cd274   2.123       .  S
Cd270       O272   2.017       .  S
Cd270       O273   1.960       .  S
Cd271       O275   2.201       .  S
Cd271       O284   2.230       .  S
Cd271       O273   2.147       .  S
O272        C282   1.249       .  A
O273       Cd274   1.968       .  S
Cd274       O276   2.164       .  S
O275        C282   1.270       .  A
C277        O281   1.267       .  A
C283        O284   1.289       .  A
C285        C291   1.622       .  S
C285        C317   1.648       .  S
C286        C297   1.617       .  S
C286        C321   1.624       .  S
C286        C397   1.649       .  S
C286        C515   1.608       .  S
C287        C303   1.631       .  S
C287        C327   1.655       .  S
C288        C309   1.617       .  S
C288        C333   1.602       .  S
C288        C339   1.590       .  S
C288        C457   1.641       .  S
C289        N290   1.378       .  A
C289        N294   1.333       .  A
C289        C480   1.469       .  S
N290        C291   1.380       .  A
C291        N292   1.386       .  A
N292        C293   1.386       .  A
C293        N294   1.334       .  A
C293        C367   1.459       .  S
C295        N296   1.384       .  A
C295        N300   1.330       .  A
C295       C1642   1.476       .  S
N296        C297   1.389       .  A
C297        N298   1.388       .  A
N298        C299   1.383       .  A
C299        N300   1.331       .  A
C299        C390   1.475       .  S
C301        N302   1.391       .  A
C301        N306   1.339       .  A
C301        C539   1.484       .  S
N302        C303   1.394       .  A
C303        N304   1.380       .  A
N304        C305   1.373       .  A
C305        N306   1.345       .  A
C305        C486   1.477       .  S
C307        N308   1.382       .  A
C307        N312   1.337       .  A
C307        C489   1.486       .  S
N308        C309   1.390       .  A
C309        N310   1.386       .  A
N310        C311   1.383       .  A
C311        N312   1.335       .  A
C311        C562   1.478       .  S
C313        N314   1.326       .  A
C313        N318   1.406       .  A
C313        C422   1.518       .  S
N314        C315   1.336       .  A
C315        N316   1.385       .  A
C315        C541   1.471       .  S
N316        C317   1.388       .  A
C317        N318   1.407       .  A
C319        N320   1.375       .  A
C319        N324   1.329       .  A
C319        C445   1.457       .  S
N320        C321   1.374       .  A
C321        N322   1.399       .  A
N322        C323   1.397       .  A
C323        N324   1.332       .  A
C323        C564   1.489       .  S
C325        N326   1.408       .  A
C325        N330   1.327       .  A
C325        C428   1.525       .  S
N326        C327   1.409       .  A
C327        N328   1.391       .  A
N328        C329   1.388       .  A
C329        N330   1.335       .  A
C329        C365   1.484   1_545  S
C331        N332   1.360       .  A
C331        N336   1.336       .  A
C331        C451   1.434       .  S
N332        C333   1.363       .  A
C333        N334   1.397       .  A
N334        C335   1.394       .  A
C335        N336   1.334       .  A
C335        C388   1.491       .  S
C337        N338   1.364       .  A
C337        N342   1.328       .  A
C337        C364   1.464       .  S
N338        C339   1.380       .  A
C339        N340   1.397       .  A
N340        C341   1.383       .  A
C341        N342   1.331       .  A
C341        C483   1.494       .  S
C343        N344   1.406       .  A
C343        N348   1.335       .  A
C343        C387   1.504       .  S
N344        C345   1.396       .  A
C345        N346   1.382       .  A
N346        C347   1.380       .  A
C347        N348   1.337       .  A
C347        C503   1.472       .  S
O349        C365   1.263       .  A
O349       Zn355   2.044       .  S
C350       C2096   1.506       .  S
C350        O934   1.271       .  A
C350       O1499   1.285       .  A
O351       C1500   1.297       .  A
O351       Cd358   2.151   1_655  S
O352        C370   1.231       .  A
O352       Cd361   1.933       .  S
O353       C1503   1.287       .  A
O353       Cd357   2.109       .  S
O354        C933   1.288       .  A
O354       Cd357   2.168       .  S
Zn355       O366   2.152       .  S
Zn355       O368   2.118   1_565  S
Zn355       O360   2.007       .  S
O356        C367   1.283       .  A
O356       Cd361   2.042       .  S
Cd357       O359   2.005       .  S
Cd357       O928   1.988       .  S
Cd358       O362   2.171   1_455  S
Cd358       O371   2.227       .  S
Cd358      O1496   2.104   1_445  S
O359       C2073   1.251       .  A
O360       Cd925   2.019       .  S
O360      Cd1494   2.041   1_565  S
O360      Cd2065   1.964       .  S
Cd361       O363   2.158       .  S
Cd361      O2064   1.919   1_455  S
O362        C369   1.264   1_655  A
O363       C1486   1.281       .  A
C364       O1487   1.279       .  A
C364        O368   1.264       .  A
C365        O922   1.277       .  A
O366        C918   1.279       .  A
C367       O1489   1.286       .  A
C369       C1793   1.487   1_455  S
C369       O2063   1.249   1_545  A
C370        C395   1.493       .  S
C370        O939   1.284       .  A
O371        C938   1.285   1_545  A
O372        C388   1.294       .  A
O372       Zn378   2.094       .  S
C373       C1789   1.494   1_556  S
C373        O957   1.291       .  A
C373       O1522   1.278       .  A
O374       C1523   1.289   1_455  A
O374       Cd381   2.233       .  S
O375        C393   1.272       .  A
O375       Cd384   2.258   1_455  S
O376       C1526   1.291       .  A
O376       Cd380   2.135       .  S
O377        C956   1.284       .  A
O377       Cd380   2.103       .  S
Zn378       O389   2.150       .  S
Zn378       O391   1.870       .  S
Zn378       O383   1.874   1_545  S
O379        C390   1.277       .  A
O379       Cd384   2.321   1_455  S
Cd380       O382   2.003       .  S
Cd380       O951   1.938       .  S
Cd381       O385   2.195       .  S
Cd381       O394   2.234   1_545  S
Cd381      O1519   2.152   1_445  S
O382       C2096   1.250       .  A
O383       Cd948   1.926       .  S
O383      Cd1517   2.143   1_565  S
O383      Cd2088   2.075       .  S
Cd384       O386   2.310   1_655  S
Cd384      O2087   2.095       .  S
O385        C392   1.269       .  A
O386       C1509   1.282   1_455  A
C387       O1510   1.286       .  A
C387        O391   1.241       .  A
C388        O945   1.284       .  A
O389        C941   1.293       .  A
C390       O1512   1.290   1_455  A
C392       C2054   1.495       .  S
C392       O2086   1.245   1_455  A
C393        C401   1.496       .  S
C393        O962   1.299       .  A
O394        C961   1.305       .  A
C395        N396   1.395       .  A
C395        N400   1.324       .  A
N396        C397   1.394       .  A
C397        N398   1.391       .  A
N398        C399   1.390       .  A
C399        N400   1.334       .  A
C399        C423   1.469       .  S
C401        N402   1.336       .  A
C401        N406   1.383       .  A
N402        C403   1.332       .  A
C403        N404   1.400       .  A
C403        C446   1.512       .  S
N404        C405   1.403       .  A
C405        N406   1.393       .  A
O407        C423   1.283       .  A
O407       Zn413   2.059       .  S
C408        C734   1.458       .  S
C408        O992   1.275       .  A
C408        O421   1.271   1_565  A
O409        C422   1.301       .  A
O409       Cd416   2.293       .  S
O410        C428   1.247   1_565  A
O410       Cd419   1.928   1_565  S
O411        C425   1.285       .  A
O411       Cd415   2.331       .  S
O412        C991   1.280       .  A
O412       Cd415   2.334   1_565  S
Zn413       O424   1.960       .  S
Zn413       O426   1.861       .  S
Zn413       O418   1.835       .  S
O414        C425   1.283       .  A
O414       Cd419   2.097       .  S
Cd415       O417   2.236       .  S
Cd415       O986   2.059       .  S
Cd416       O420   2.305       .  S
Cd416       O429   2.301       .  S
Cd416       O418   2.061       .  S
O417        C995   1.271       .  A
O418       Cd987   1.947       .  S
O418       Cd983   2.021       .  S
Cd419       O421   2.080       .  S
Cd419       O986   1.970       .  S
O420        C427   1.311       .  A
C422        O426   1.246       .  A
C423        O980   1.279       .  A
O424        C976   1.277       .  A
C425        C455   1.470       .  S
C427        C999   1.511       .  S
C427        O985   1.272       .  A
C428        O997   1.296       .  A
O429        C996   1.296       .  A
O430        C446   1.295       .  A
O430       Zn436   2.164       .  S
C431        C995   1.514       .  S
C431       O1015   1.284       .  A
C431        O444   1.278       .  A
O432        C445   1.288       .  A
O432       Cd439   2.127       .  S
O433        C451   1.257       .  A
O433       Cd442   1.968       .  S
O434        C448   1.286       .  A
O434       Cd438   2.239       .  S
O435       C1014   1.282       .  A
O435       Cd438   2.096   1_565  S
Zn436       O447   1.999       .  S
Zn436       O449   1.923       .  S
Zn436       O441   1.895       .  S
O437        C448   1.289       .  A
O437       Cd442   2.118       .  S
Cd438       O440   2.036   1_545  S
Cd438      O1009   1.944       .  S
Cd439       O443   2.145       .  S
Cd439       O452   2.055       .  S
Cd439       O441   2.018       .  S
O440       C1018   1.237       .  A
O441      Cd1006   1.944       .  S
O441      Cd1010   1.951       .  S
Cd442       O444   2.063       .  S
Cd442      O1009   1.945       .  S
O443        C450   1.262       .  A
C445        O449   1.246       .  A
C446       O1003   1.284       .  A
O447        C999   1.282       .  A
C448        C461   1.538       .  S
C450        C692   1.464       .  S
C450       O1008   1.236       .  A
C451       O1020   1.279       .  A
O452       C1019   1.279       .  A
C453        N454   1.322       .  A
C453        N458   1.390       .  A
C453        C538   1.477       .  S
N454        C455   1.331       .  A
C455        N456   1.389       .  A
N456        C457   1.393       .  A
C457        N458   1.388       .  A
C459        N460   1.336       .  A
C459        N464   1.375       .  A
C459        C561   1.484       .  S
N460        C461   1.338       .  A
C461        N462   1.407       .  A
N462        C463   1.413       .  A
C463        N464   1.383       .  A
O465        C481   1.292       .  A
O465       Zn471   2.267       .  S
C466       C1356   1.507   1_455  S
C466        O482   1.282       .  A
C466       O1615   1.280       .  A
O467       C1616   1.303       .  A
O467       Cd474   2.221       .  S
O468        C486   1.277       .  A
O468       Cd477   2.219       .  S
O469       C1619   1.276       .  A
O469       Cd473   2.242   1_655  S
O470        C481   1.277       .  A
O470       Cd473   2.254       .  S
Zn471       O482   2.222       .  S
Zn471       O484   2.048       .  S
Zn471       O476   1.966       .  S
O472        C483   1.285       .  A
O472       Cd477   2.306       .  S
Cd473       O475   1.925       .  S
Cd473       O476   1.795       .  S
Cd474       O478   2.477       .  S
Cd474       O487   2.246       .  S
Cd474      O1612   2.129       .  S
O475       C1621   1.283       .  A
O476      Cd1610   2.125       .  S
O476      Cd1613   2.093       .  S
Cd477       O479   2.301       .  S
Cd477      O1612   2.097       .  S
O478        C485   1.324       .  A
O479       C1602   1.276       .  A
C480       O1603   1.302       .  A
C480        O484   1.268       .  A
C481        C513   1.519       .  S
C483       O1605   1.275       .  A
C485       C1645   1.455       .  S
C485       O1611   1.283       .  A
C486        O487   1.299       .  A
O488        C504   1.272   1_556  A
O488       Zn494   2.189       .  S
C489        O505   1.289       .  A
C489        O502   1.278       .  A
O490       C1639   1.291   1_455  A
O490       Cd497   2.151       .  S
O491       C1645   1.238       .  A
O491       Cd500   1.951       .  S
O492       C1642   1.274       .  A
O492       Cd496   2.300       .  S
O493       C1640   1.266   1_556  A
O493       Cd496   2.263       .  S
Zn494       O505   2.205       .  S
Zn494       O507   2.034       .  S
Zn494       O499   2.063       .  S
O495        C506   1.271       .  A
O495       Cd500   2.068       .  S
Cd496       O498   2.076       .  S
Cd496      O1635   2.206   1_455  S
Cd497       O501   2.179       .  S
Cd497       O510   2.158       .  S
Cd497      O1635   2.032   1_455  S
O498        C508   1.253       .  A
O499      Cd1633   2.032       .  S
O499       Cd500   2.003       .  S
O499      Cd1632   2.211       .  S
Cd500       O502   2.102       .  S
O501        C508   1.295       .  A
C503       O1626   1.292       .  A
C503        O507   1.259       .  A
C504       C1318   1.505       .  S
C504       O1629   1.265   1_554  A
C506       C1431   1.480       .  S
C506       O1628   1.273       .  A
C508        C521   1.461       .  S
C509       C1621   1.463       .  S
C509       O1627   1.238       .  A
C509        O510   1.274       .  A
C511        N512   1.336       .  A
C511        N516   1.361       .  A
C511        C544   1.468       .  S
N512        C513   1.334       .  A
C513        N514   1.395       .  A
N514        C515   1.408       .  A
C515        N516   1.378       .  A
C517        N518   1.406       .  A
C517        N522   1.338       .  A
C517        C567   1.493       .  S
N518        C519   1.393       .  A
C519        N520   1.371       .  A
N520        C521   1.377       .  A
C521        N522   1.336       .  A
O523        C539   1.283       .  A
O523       Zn529   2.005       .  S
C524        C566   1.500       .  S
C524        O540   1.284       .  A
C524        O537   1.283       .  A
O525        C538   1.278       .  A
O525       Cd532   2.185       .  S
O526        C544   1.278       .  A
O526       Cd535   2.303       .  S
O527        C541   1.291       .  A
O527       Cd531   2.131       .  S
O528        C539   1.286       .  A
O528       Cd531   2.123       .  S
Zn529       O540   2.128       .  S
Zn529       O542   1.877       .  S
Zn529       O534   1.851       .  S
O530        C541   1.277       .  A
O530       Cd535   2.274       .  S
Cd531       O533   1.992       .  S
Cd531       O534   1.948       .  S
Cd532       O536   2.181       .  S
Cd532       O545   2.073       .  S
Cd532       O534   2.055       .  S
O533        C543   1.250       .  A
O534       Cd535   2.064       .  S
Cd535       O537   2.306       .  S
O536        C543   1.271       .  A
C538        O542   1.232       .  A
C544        O545   1.280       .  A
O546        C562   1.273       .  A
O546       Zn552   2.116       .  S
C547        O563   1.271   1_554  A
C547        O560   1.287   1_554  A
O548        C561   1.297       .  A
O548       Cd555   2.200       .  S
O549        C567   1.239       .  A
O549       Cd558   1.924       .  S
O550        C564   1.286       .  A
O550       Cd554   2.113       .  S
O551        C562   1.290       .  A
O551       Cd554   2.161       .  S
Zn552       O563   2.100       .  S
Zn552       O565   2.059       .  S
Zn552       O557   1.920       .  S
O553        C564   1.292       .  A
O553       Cd558   2.123       .  S
Cd554       O556   2.021       .  S
Cd554       O557   1.954       .  S
Cd555       O559   2.198       .  S
Cd555       O568   2.211       .  S
Cd555       O557   2.157       .  S
O556        C566   1.248       .  A
O557       Cd558   1.972       .  S
Cd558       O560   2.166       .  S
O559        C566   1.270       .  A
C561        O565   1.265       .  A
C567        O568   1.284       .  A
C569        C575   1.626       .  S
C569        C601   1.644       .  S
C569        C973   1.630   1_554  S
C569       C1087   1.636   1_554  S
C570        C581   1.615       .  S
C570        C605   1.608       .  S
C570        C681   1.637       .  S
C570        C799   1.598       .  S
C571        C587   1.639       .  S
C571        C611   1.647       .  S
C571        C913   1.658   1_554  S
C571       C1031   1.636   1_554  S
C572        C593   1.610       .  S
C572        C617   1.597       .  S
C572        C623   1.586       .  S
C572        C741   1.634       .  S
C573        N574   1.380       .  A
C573        N578   1.332       .  A
C573        C764   1.472       .  S
N574        C575   1.381       .  A
C575        N576   1.388       .  A
N576        C577   1.388       .  A
C577        N578   1.335       .  A
C577        C651   1.466       .  S
C579        N580   1.380       .  A
C579        N584   1.335       .  A
C579       C1926   1.482       .  S
N580        C581   1.389       .  A
C581        N582   1.387       .  A
N582        C583   1.384       .  A
C583        N584   1.333       .  A
C583        C674   1.476       .  S
C585        N586   1.394       .  A
C585        N590   1.346       .  A
C585        C823   1.488       .  S
N586        C587   1.390       .  A
C587        N588   1.384       .  A
N588        C589   1.384       .  A
C589        N590   1.341       .  A
C589        C770   1.493       .  S
C591        N592   1.385       .  A
C591        N596   1.327       .  A
C591        C773   1.475       .  S
N592        C593   1.389       .  A
C593        N594   1.380       .  A
N594        C595   1.379       .  A
C595        N596   1.329       .  A
C595        C846   1.455       .  S
C597        N598   1.329       .  A
C597        N602   1.404       .  A
C597        C706   1.516       .  S
N598        C599   1.338       .  A
C599        N600   1.387       .  A
C599        C825   1.477       .  S
N600        C601   1.389       .  A
C601        N602   1.404       .  A
C603        N604   1.372       .  A
C603        N608   1.333       .  A
C603        C729   1.443       .  S
N604        C605   1.371       .  A
C605        N606   1.394       .  A
N606        C607   1.388       .  A
C607        N608   1.331       .  A
C607        C848   1.481       .  S
C609        N610   1.407       .  A
C609        N614   1.329       .  A
C609        C712   1.517       .  S
N610        C611   1.406       .  A
C611        N612   1.384       .  A
N612        C613   1.383       .  A
C613        N614   1.335       .  A
C613        C649   1.460       .  S
C615        N616   1.360       .  A
C615        N620   1.340       .  A
C615        C735   1.431       .  S
N616        C617   1.362       .  A
C617        N618   1.398       .  A
N618        C619   1.390       .  A
C619        N620   1.335       .  A
C619        C672   1.498       .  S
C621        N622   1.358       .  A
C621        N626   1.325       .  A
C621        C648   1.446       .  S
N622        C623   1.371       .  A
C623        N624   1.399       .  A
N624        C625   1.389       .  A
C625        N626   1.331       .  A
C625        C767   1.496       .  S
C627        N628   1.405       .  A
C627        N632   1.336       .  A
C627        C671   1.498       .  S
N628        C629   1.398       .  A
C629        C855   1.664       .  S
C629        N630   1.386       .  A
N630        C631   1.388       .  A
C631        N632   1.336       .  A
C631        C787   1.483       .  S
O633        C649   1.258       .  A
O633       Zn639   2.002       .  S
C634       C1244   1.504   1_565  S
C634       O1783   1.279       .  A
O635       C1784   1.297       .  A
O635       Cd642   2.169   1_655  S
O636        C654   1.232       .  A
O636       Cd645   1.930       .  S
O637       C1787   1.283       .  A
O637       Cd641   2.108       .  S
O638       Cd641   2.131       .  S
Zn639       O650   2.125       .  S
Zn639       O652   1.985       .  S
Zn639       O644   1.870       .  S
O640        C651   1.286       .  A
O640       Cd645   2.047       .  S
Cd641       O643   2.004       .  S
Cd642       O646   2.184   1_455  S
Cd642       O655   2.218       .  S
Cd642      O1780   2.110   1_455  S
O643       C1221   1.253   1_565  A
O644      Cd1778   2.117       .  S
O644      Cd1213   1.925       .  S
Cd645       O647   2.162       .  S
Cd645      O1212   1.918   1_455  S
O646        C653   1.270   1_655  A
O647       C1770   1.282       .  A
C648       O1771   1.291       .  A
C648        O652   1.263       .  A
C651       O1773   1.288       .  A
C653       C1509   1.496   1_454  S
C653       O1211   1.250       .  A
C654        C679   1.491       .  S
O656        C672   1.294       .  A
O656       Zn662   2.092       .  S
C657       C1505   1.497       .  S
C657       O1806   1.280   1_545  A
O658       C1807   1.289   1_455  A
O658       Cd665   2.226       .  S
O659        C677   1.267       .  A
O659       Cd668   2.151       .  S
O660       C1810   1.291       .  A
O660       Cd664   2.158       .  S
O661       Cd664   2.105   1_545  S
Zn662       O673   2.121       .  S
Zn662       O675   1.870       .  S
Zn662       O667   1.883       .  S
O663        C674   1.269       .  A
O663       Cd668   2.213       .  S
Cd664       O666   2.001   1_565  S
Cd665       O669   2.202       .  S
Cd665       O678   2.197       .  S
Cd665      O1803   2.110   1_455  S
O666       C1244   1.246       .  A
O667      Cd1801   2.090       .  S
O667      Cd1236   2.125       .  S
Cd668       O670   2.200   1_455  S
Cd668      O1235   2.009   1_455  S
O669        C676   1.271       .  A
O670       C1793   1.268   1_565  A
C671       O1794   1.291       .  A
C671        O675   1.245       .  A
C674       O1796   1.292   1_455  A
C676       C1202   1.502       .  S
C676       O1234   1.248       .  A
C677        C685   1.482       .  S
C679        N680   1.392       .  A
C679        N684   1.330       .  A
N680        C681   1.391       .  A
C681        N682   1.390       .  A
N682        C683   1.389       .  A
C683        N684   1.338       .  A
C683        C707   1.475       .  S
C685        N686   1.333       .  A
C685        N690   1.378       .  A
N686        C687   1.332       .  A
C687        N688   1.398       .  A
C687        C730   1.508       .  S
N688        C689   1.403       .  A
C689        C853   1.629       .  S
C689        N690   1.388       .  A
O691        C707   1.289       .  A
O691       Zn697   2.091       .  S
C692        O705   1.275       .  A
O693        C706   1.300       .  A
O693       Cd700   2.286       .  S
O694        C712   1.240       .  A
O694       Cd703   1.923       .  S
O695        C709   1.280       .  A
O695       Cd699   2.316       .  S
O696       Cd699   2.324       .  S
Zn697       O708   1.980   1_554  S
Zn697       O710   1.869       .  S
Zn697       O702   1.824   1_565  S
O698        C709   1.289       .  A
O698       Cd703   2.134       .  S
Cd699       O701   2.109       .  S
Cd700       O704   2.317   1_565  S
Cd700       O713   2.270   1_565  S
Cd700       O702   2.089   1_565  S
Cd703       O705   2.051   1_554  S
O704        C711   1.316       .  A
C706        O710   1.244       .  A
C709        C739   1.467       .  S
O714        C730   1.284       .  A
O714       Zn720   2.225   1_565  S
C715        O728   1.267       .  A
O716        C729   1.285       .  A
O716       Cd723   2.104       .  S
O717        C735   1.258       .  A
O717       Cd726   2.146       .  S
O718        C732   1.279       .  A
O718       Cd722   2.221       .  S
O719       Cd722   2.110       .  S
Zn720       O731   2.131       .  S
Zn720       O733   1.975   1_545  S
Zn720       O725   2.043       .  S
O721        C732   1.277       .  A
O721       Cd726   2.270       .  S
Cd722       O724   2.036       .  S
Cd723       O727   2.148       .  S
Cd723       O736   2.070   1_565  S
Cd723       O725   2.066   1_565  S
Cd726       O728   2.257       .  S
O727        C734   1.261       .  A
C729        O733   1.253       .  A
C732        C745   1.529       .  S
C737        N738   1.324       .  A
C737        N742   1.388       .  A
C737        C822   1.479       .  S
N738        C739   1.334       .  A
C739        N740   1.388       .  A
N740        C741   1.391       .  A
C741        N742   1.388       .  A
C743        N744   1.336       .  A
C743        N748   1.382       .  A
C743        C845   1.499       .  S
N744        C745   1.339       .  A
C745        N746   1.399       .  A
N746        C747   1.409       .  A
C747        C855   1.633       .  S
C747        N748   1.390       .  A
O749        C765   1.288       .  A
O749       Zn755   2.225       .  S
C750       C2208   1.503   1_554  S
C750        O766   1.282       .  A
C750       O1899   1.282       .  A
O751       C1900   1.303       .  A
O751       Cd758   2.228       .  S
O752        C770   1.272       .  A
O752       Cd761   2.226       .  S
O753       C1903   1.273       .  A
O753       Cd757   2.254   1_655  S
O754        C765   1.273       .  A
O754       Cd757   2.221       .  S
Zn755       O766   2.224       .  S
Zn755       O768   2.078       .  S
Zn755       O760   1.975       .  S
O756        C767   1.284       .  A
O756       Cd761   2.306       .  S
Cd757       O759   1.929       .  S
Cd757       O760   1.804       .  S
Cd758       O762   2.489       .  S
Cd758       O771   2.282       .  S
Cd758      O1896   2.126       .  S
O759       C1905   1.283       .  A
O760      Cd1894   2.116       .  S
O760      Cd1897   2.092       .  S
Cd761       O763   2.308       .  S
Cd761      O1896   2.109       .  S
O762        C769   1.327       .  A
O763       C1886   1.277       .  A
C764       O1887   1.304       .  A
C764        O768   1.270       .  A
C765        C797   1.497       .  S
C767       O1889   1.272       .  A
C769       C1929   1.463       .  S
C769       O1895   1.283       .  A
C770        O771   1.309       .  A
O772        C788   1.270       .  A
O772       Zn778   2.179       .  S
C773        O789   1.280       .  A
C773        O786   1.270       .  A
O774       C1923   1.299   1_455  A
O774       Cd781   2.208       .  S
O775       C1929   1.238       .  A
O775       Cd784   1.948       .  S
O776       C1926   1.285       .  A
O776       Cd780   2.076       .  S
O777       C1924   1.273       .  A
O777       Cd780   2.046   1_655  S
Zn778       O789   2.215       .  S
Zn778       O791   1.990       .  S
Zn778       O783   2.079       .  S
O779        C790   1.277       .  A
O779       Cd784   2.125       .  S
Cd780       O782   1.969       .  S
Cd780      O1919   1.964   1_455  S
Cd781       O785   2.178       .  S
Cd781       O794   2.174       .  S
Cd781      O1919   2.005   1_455  S
O782        C792   1.256       .  A
O783      Cd1917   2.021       .  S
O783       Cd784   2.001       .  S
O783      Cd1916   2.207       .  S
Cd784       O786   2.027       .  S
O785        C792   1.295       .  A
C787       O1910   1.301       .  A
C787        O791   1.255       .  A
C788       C2170   1.504       .  S
C788       O1913   1.265       .  A
C790       C1715   1.490       .  S
C790       O1912   1.281       .  A
C792        C805   1.472       .  S
C793       C1905   1.465       .  S
C793       O1911   1.238   1_455  A
C793        O794   1.278       .  A
C795        N796   1.330       .  A
C795        N800   1.365       .  A
C795        C828   1.466       .  S
N796        C797   1.329       .  A
C797        N798   1.385       .  A
N798        C799   1.399       .  A
C799        N800   1.381       .  A
C801        N802   1.407       .  A
C801        N806   1.337       .  A
C801        C851   1.503       .  S
N802        C803   1.397       .  A
C803        C853   1.655       .  S
C803        N804   1.380       .  A
N804        C805   1.381       .  A
C805        N806   1.338       .  A
O807        C823   1.287       .  A
O807       Zn813   2.036       .  S
C808        C850   1.514       .  S
C808        O824   1.287       .  A
C808        O821   1.285       .  A
O809        C822   1.279       .  A
O809       Cd816   2.188       .  S
O810        C828   1.273       .  A
O810       Cd819   2.287       .  S
O811        C825   1.291       .  A
O811       Cd815   2.132       .  S
O812        C823   1.287       .  A
O812       Cd815   2.127       .  S
Zn813       O824   2.165       .  S
Zn813       O826   1.888       .  S
Zn813       O818   1.853       .  S
O814        C825   1.279       .  A
O814       Cd819   2.298       .  S
Cd815       O817   1.997       .  S
Cd815       O818   1.952       .  S
Cd816       O820   2.170       .  S
Cd816       O829   2.074       .  S
Cd816       O818   2.050       .  S
O817        C827   1.251       .  A
O818       Cd819   2.063       .  S
Cd819       O821   2.325       .  S
O820        C827   1.270       .  A
C822        O826   1.233       .  A
C827       C1115   1.485       .  S
C828        O829   1.283       .  A
O830        C846   1.272       .  A
O830       Zn836   2.094       .  S
C831       C1111   1.479       .  S
C831        O847   1.267       .  A
C831        O844   1.287       .  A
O832        C845   1.303       .  A
O832       Cd839   2.238       .  S
O833        C851   1.244       .  A
O833       Cd842   1.931       .  S
O834        C848   1.278       .  A
O834       Cd838   2.082       .  S
O835        C846   1.285       .  A
O835       Cd838   2.123       .  S
Zn836       O847   2.076       .  S
Zn836       O849   2.078       .  S
Zn836       O841   1.915       .  S
O837        C848   1.292       .  A
O837       Cd842   2.112       .  S
Cd838       O840   2.018       .  S
Cd838       O841   1.953       .  S
Cd839       O843   2.228       .  S
Cd839       O852   2.247       .  S
Cd839       O841   2.126       .  S
O840        C850   1.249       .  A
O841       Cd842   1.960       .  S
Cd842       O844   2.153       .  S
O843        C850   1.276       .  A
C845        O849   1.266       .  A
C851        O852   1.293       .  A
C853        C859   1.631       .  S
C853        C885   1.654       .  S
C854        C865   1.618       .  S
C854        C889   1.613       .  S
C854        C965   1.652       .  S
C854       C1083   1.621       .  S
C855        C871   1.635       .  S
C855        C895   1.657       .  S
C856        C877   1.618       .  S
C856        C901   1.607       .  S
C856        C907   1.597       .  S
C856       C1025   1.640       .  S
C857        N858   1.389       .  A
C857        N862   1.313       .  A
C857       C1048   1.463       .  S
N858        C859   1.382       .  A
C859        N860   1.382       .  A
N860        C861   1.389       .  A
C861        N862   1.329       .  A
C861        C935   1.436       .  S
C863        N864   1.390       .  A
C863        N868   1.333       .  A
C863       C2210   1.487       .  S
N864        C865   1.394       .  A
C865        N866   1.388       .  A
N866        C867   1.378       .  A
C867        N868   1.328       .  A
C867        C958   1.476       .  S
C869        N870   1.396       .  A
C869        N874   1.343       .  A
C869       C1107   1.481       .  S
N870        C871   1.386       .  A
C871        N872   1.384       .  A
N872        C873   1.387       .  A
C873        N874   1.332       .  A
C873       C1054   1.486       .  S
C875        N876   1.385       .  A
C875        N880   1.330       .  A
C875       C1057   1.474       .  S
N876        C877   1.387       .  A
C877        N878   1.385       .  A
N878        C879   1.384       .  A
C879        N880   1.331       .  A
C879       C1130   1.469       .  S
C881        N882   1.326       .  A
C881        N886   1.407       .  A
C881        C990   1.521       .  S
N882        C883   1.333       .  A
C883        N884   1.387       .  A
C883       C1109   1.473       .  S
N884        C885   1.391       .  A
C885        N886   1.408       .  A
C887        N888   1.373       .  A
C887        N892   1.331       .  A
C887       C1013   1.456       .  S
N888        C889   1.374       .  A
C889        N890   1.395       .  A
N890        C891   1.391       .  A
C891        N892   1.331       .  A
C891       C1132   1.480       .  S
C893        N894   1.411       .  A
C893        N898   1.333       .  A
C893        C996   1.533       .  S
N894        C895   1.411       .  A
C895        N896   1.384       .  A
N896        C897   1.383       .  A
C897        N898   1.337       .  A
C897        C933   1.463       .  S
C899        N900   1.360       .  A
C899        N904   1.336       .  A
C899       C1019   1.442       .  S
N900        C901   1.367       .  A
C901        N902   1.399       .  A
N902        C903   1.394       .  A
C903        N904   1.332       .  A
C903        C956   1.493       .  S
C905        N906   1.359       .  A
C905        N910   1.328       .  A
C905        C932   1.452       .  S
N906        C907   1.373       .  A
C907        N908   1.401       .  A
N908        C909   1.391       .  A
C909        N910   1.335       .  A
C909       C1051   1.501       .  S
C911        N912   1.406       .  A
C911        N916   1.335       .  A
C911        C955   1.501       .  S
N912        C913   1.397       .  A
C913        N914   1.383       .  A
N914        C915   1.385       .  A
C915        N916   1.334       .  A
C915       C1071   1.475       .  S
O917        C933   1.254       .  A
O917       Zn923   1.982       .  S
C918       C1528   1.504   1_565  S
C918       O2067   1.280       .  A
O919       C2068   1.297       .  A
O919       Cd926   2.196   1_655  S
O920        C938   1.229       .  A
O920       Cd929   1.944       .  S
O921       C2071   1.286       .  A
O921       Cd925   2.122       .  S
O922       Cd925   2.158       .  S
Zn923       O934   2.107       .  S
Zn923       O936   1.974       .  S
Zn923       O928   1.866       .  S
O924        C935   1.282       .  A
O924       Cd929   1.998       .  S
Cd925       O927   2.005       .  S
Cd926       O930   2.186   1_455  S
Cd926       O939   2.220       .  S
Cd926      O2064   2.120   1_455  S
O927       C1505   1.249   1_565  A
O928      Cd2062   2.108       .  S
O928      Cd1497   1.922       .  S
Cd929       O931   2.143       .  S
Cd929      O1496   1.894   1_455  S
O930        C937   1.271   1_655  A
O931       C2054   1.278   1_565  A
C932       O2055   1.295       .  A
C932        O936   1.265       .  A
C935       O2057   1.287       .  A
C937       C1225   1.496   1_455  S
C937       O1495   1.250       .  A
C938        C963   1.492       .  S
O940        C956   1.292       .  A
O940       Zn946   2.088       .  S
C941       C1221   1.497   1_556  S
C941       O2090   1.276   1_545  A
O942       C2091   1.291   1_455  A
O942       Cd949   2.242       .  S
O943        C961   1.276       .  A
O943       Cd952   2.176   1_455  S
O944       C2094   1.292       .  A
O944       Cd948   2.158       .  S
O945       Cd948   2.093   1_545  S
Zn946       O957   2.125       .  S
Zn946       O959   1.865       .  S
Zn946       O951   1.877       .  S
O947        C958   1.275       .  A
O947       Cd952   2.293   1_455  S
Cd948       O950   2.011   1_565  S
Cd949       O953   2.201       .  S
Cd949       O962   2.193       .  S
Cd949      O2087   2.080   1_455  S
O950       C1528   1.246       .  A
O951      Cd2085   2.127       .  S
O951      Cd1520   2.093       .  S
Cd952       O954   2.272   1_655  S
Cd952      O1519   2.023       .  S
O953        C960   1.273       .  A
O954       C2077   1.275   1_465  A
C955       O2078   1.287       .  A
C955        O959   1.241       .  A
C958       O2080   1.295   1_455  A
C960       C1486   1.500       .  S
C960       O1518   1.247       .  A
C961        C969   1.486       .  S
C963        N964   1.394       .  A
C963        N968   1.324       .  A
N964        C965   1.395       .  A
C965        N966   1.392       .  A
N966        C967   1.391       .  A
C967        N968   1.334       .  A
C967        C991   1.472       .  S
C969        N970   1.338       .  A
C969        N974   1.377       .  A
N970        C971   1.334       .  A
C971        N972   1.399       .  A
C971       C1014   1.510       .  S
N972        C973   1.401       .  A
C973        N974   1.387       .  A
O975        C991   1.281       .  A
O975       Zn981   2.060       .  S
C976        O989   1.272       .  A
O977        C990   1.299       .  A
O977       Cd984   2.287       .  S
O978        C996   1.246       .  A
O978       Cd987   1.934       .  S
O979        C993   1.284       .  A
O979       Cd983   2.324       .  S
O980       Cd983   2.330       .  S
Zn981       O992   1.961       .  S
Zn981       O994   1.868       .  S
Zn981       O986   1.860   1_565  S
O982        C993   1.285       .  A
O982       Cd987   2.108       .  S
Cd983       O985   2.185       .  S
Cd984       O988   2.266   1_565  S
Cd984       O997   2.292   1_565  S
Cd984       O986   2.034   1_565  S
Cd987       O989   2.075       .  S
O988        C995   1.303       .  A
C990        O994   1.248       .  A
C993       C1023   1.465       .  S
O998       C1014   1.295       .  A
O998      Zn1004   2.154   1_565  S
C999       O1012   1.279       .  A
O1000      C1013   1.288       .  A
O1000     Cd1007   2.128       .  S
O1001      C1019   1.259       .  A
O1001     Cd1010   1.995       .  S
O1002      C1016   1.289       .  A
O1002     Cd1006   2.235       .  S
O1003     Cd1006   2.106       .  S
Zn1004     O1015   2.000       .  S
Zn1004     O1017   1.926   1_545  S
Zn1004     O1009   1.888       .  S
O1005      C1016   1.288       .  A
O1005     Cd1010   2.120       .  S
Cd1006     O1008   2.028       .  S
Cd1007     O1011   2.147       .  S
Cd1007     O1020   2.060   1_565  S
Cd1007     O1009   2.017   1_565  S
Cd1010     O1012   2.048       .  S
O1011      C1018   1.264       .  A
C1013      O1017   1.249       .  A
C1016      C1029   1.531       .  S
C1021      N1022   1.319       .  A
C1021      N1026   1.387       .  A
C1021      C1106   1.472       .  S
N1022      C1023   1.330       .  A
C1023      N1024   1.389       .  A
N1024      C1025   1.393       .  A
C1025      N1026   1.385       .  A
C1027      N1028   1.337       .  A
C1027      N1032   1.378       .  A
C1027      C1129   1.489       .  S
N1028      C1029   1.338       .  A
C1029      N1030   1.404       .  A
N1030      C1031   1.410       .  A
C1031      N1032   1.386       .  A
O1033      C1049   1.302       .  A
O1033     Zn1039   2.369       .  S
C1034      C1924   1.509       .  S
C1034      O1050   1.292   1_655  A
C1034      O2183   1.263       .  A
O1035      C2184   1.305       .  A
O1035     Cd1042   2.231       .  S
O1036      C1054   1.268       .  A
O1036     Cd1045   2.233       .  S
O1037      C2187   1.287   1_455  A
O1037     Cd1041   2.342       .  S
O1038      C1049   1.268       .  A
O1038     Cd1041   2.322       .  S
Zn1039     O1050   2.339       .  S
Zn1039     O1052   1.985       .  S
Zn1039     O1044   2.026       .  S
O1040      C1051   1.285       .  A
O1040     Cd1045   2.314       .  S
Cd1041     O1043   1.970       .  S
Cd1041     O1044   2.004       .  S
Cd1042     O1046   2.476       .  S
Cd1042     O1055   2.258       .  S
Cd1042     O2180   2.128       .  S
O1043      C2189   1.269       .  A
O1044     Cd2178   2.158       .  S
O1044     Cd2181   1.783   1_455  S
Cd1045     O1047   2.305       .  S
Cd1045     O2180   2.114       .  S
O1046      C1053   1.325       .  A
O1047      C2170   1.276       .  A
C1048      O2171   1.302       .  A
C1048      O1052   1.256       .  A
C1049      C1081   1.513       .  S
C1051      O2173   1.274       .  A
C1053      C2213   1.456       .  S
C1053      O2179   1.283       .  A
C1054      O1055   1.310       .  A
O1056      C1072   1.271   1_556  A
O1056     Zn1062   2.179       .  S
C1057      O1073   1.279       .  A
C1057      O1070   1.270       .  A
O1058      C2207   1.291       .  A
O1058     Cd1065   2.160   1_655  S
O1059      C2213   1.238       .  A
O1059     Cd1068   1.947       .  S
O1060      C2210   1.279       .  A
O1060     Cd1064   2.383   1_455  S
O1061      C2208   1.277       .  A
O1061     Cd1064   2.332   1_455  S
Zn1062     O1073   2.196       .  S
Zn1062     O1075   1.996       .  S
Zn1062     O1067   2.076       .  S
O1063      C1074   1.276       .  A
O1063     Cd1068   2.122       .  S
Cd1064     O1066   2.167   1_655  S
Cd1064     O2203   2.146       .  S
Cd1065     O1069   2.160       .  S
Cd1065     O1078   2.089       .  S
Cd1065     O2203   1.982   1_455  S
O1066      C1076   1.261       .  A
O1067     Cd2201   2.026       .  S
O1067     Cd1068   2.000       .  S
O1067     Cd2200   2.196       .  S
Cd1068     O1070   2.037       .  S
O1069      C1076   1.292       .  A
C1071      O2194   1.298       .  A
C1071      O1075   1.255       .  A
C1072      C1886   1.501       .  S
C1072      O2197   1.265   1_554  A
C1074      C1999   1.489       .  S
C1074      O2196   1.283       .  A
C1076      C1089   1.463       .  S
C1077      C2189   1.429       .  S
C1077      O2195   1.247   1_455  A
C1077      O1078   1.280       .  A
C1079      N1080   1.330       .  A
C1079      N1084   1.360       .  A
C1079      C1112   1.456       .  S
N1080      C1081   1.320       .  A
C1081      N1082   1.405       .  A
N1082      C1083   1.411       .  A
C1083      N1084   1.379       .  A
C1085      N1086   1.408       .  A
C1085      N1090   1.342       .  A
C1085      C1135   1.503       .  S
N1086      C1087   1.394       .  A
C1087      N1088   1.370       .  A
N1088      C1089   1.374       .  A
C1089      N1090   1.338       .  A
O1091      C1107   1.285       .  A
O1091     Zn1097   2.013       .  S
C1092      C1134   1.504       .  S
C1092      O1108   1.285       .  A
C1092      O1105   1.282       .  A
O1093      C1106   1.276       .  A
O1093     Cd1100   2.171       .  S
O1094      C1112   1.276       .  A
O1094     Cd1103   2.291       .  S
O1095      C1109   1.291       .  A
O1095     Cd1099   2.129       .  S
O1096      C1107   1.288       .  A
O1096     Cd1099   2.129       .  S
Zn1097     O1108   2.147       .  S
Zn1097     O1110   1.888       .  S
Zn1097     O1102   1.844       .  S
O1098      C1109   1.277       .  A
O1098     Cd1103   2.290       .  S
Cd1099     O1101   1.991       .  S
Cd1099     O1102   1.945       .  S
Cd1100     O1104   2.163       .  S
Cd1100     O1113   2.063       .  S
Cd1100     O1102   2.051       .  S
O1101      C1111   1.251       .  A
O1102     Cd1103   2.055       .  S
Cd1103     O1105   2.311       .  S
O1104      C1111   1.270       .  A
C1106      O1110   1.232       .  A
C1112      O1113   1.280       .  A
O1114      C1130   1.272       .  A
O1114     Zn1120   2.109       .  S
C1115      O1131   1.270   1_554  A
C1115      O1128   1.286   1_554  A
O1116      C1129   1.299       .  A
O1116     Cd1123   2.218       .  S
O1117      C1135   1.239       .  A
O1117     Cd1126   1.933       .  S
O1118      C1132   1.283       .  A
O1118     Cd1122   2.101       .  S
O1119      C1130   1.289       .  A
O1119     Cd1122   2.145       .  S
Zn1120     O1131   2.096       .  S
Zn1120     O1133   2.055       .  S
Zn1120     O1125   1.913       .  S
O1121      C1132   1.290       .  A
O1121     Cd1126   2.108       .  S
Cd1122     O1124   2.024       .  S
Cd1122     O1125   1.951       .  S
Cd1123     O1127   2.207       .  S
Cd1123     O1136   2.236       .  S
Cd1123     O1125   2.146       .  S
O1124      C1134   1.249       .  A
O1125     Cd1126   1.962       .  S
Cd1126     O1128   2.162       .  S
O1127      C1134   1.271       .  A
C1129      O1133   1.265       .  A
C1135      O1136   1.288       .  A
C1137      C1143   1.635       .  S
C1137      C1169   1.627       .  S
C1137      C1541   1.640   1_554  S
C1137      C1655   1.648   1_554  S
C1138      C1149   1.613       .  S
C1138      C1173   1.643       .  S
C1138      C1249   1.651       .  S
C1138      C1367   1.626       .  S
C1139      C1155   1.635       .  S
C1139      C1179   1.615       .  S
C1139      C1481   1.640   1_554  S
C1139      C1599   1.634   1_554  S
C1140      C1161   1.604       .  S
C1140      C1185   1.625       .  S
C1140      C1191   1.603       .  S
C1140      C1309   1.640       .  S
C1141      N1142   1.386       .  A
C1141      N1146   1.327       .  A
C1141      C1332   1.471       .  S
N1142      C1143   1.381       .  A
C1143      N1144   1.388       .  A
N1144      C1145   1.392       .  A
C1145      N1146   1.336       .  A
C1145      C1219   1.468       .  S
C1147      N1148   1.385       .  A
C1147      N1152   1.331       .  A
N1148      C1149   1.388       .  A
C1149      N1150   1.385       .  A
N1150      C1151   1.381       .  A
C1151      N1152   1.330       .  A
C1151      C1242   1.469       .  S
C1153      N1154   1.393       .  A
C1153      N1158   1.343       .  A
C1153      C1391   1.486       .  S
N1154      C1155   1.392       .  A
C1155      N1156   1.380       .  A
N1156      C1157   1.380       .  A
C1157      N1158   1.340       .  A
C1157      C1338   1.482       .  S
C1159      N1160   1.381       .  A
C1159      N1164   1.340       .  A
C1159      C1341   1.483       .  S
N1160      C1161   1.386       .  A
C1161      N1162   1.381       .  A
N1162      C1163   1.378       .  A
C1163      N1164   1.338       .  A
C1163      C1414   1.472       .  S
C1165      N1166   1.334       .  A
C1165      N1170   1.392       .  A
C1165      C1274   1.495       .  S
N1166      C1167   1.343       .  A
C1167      N1168   1.387       .  A
C1167      C1393   1.472       .  S
N1168      C1169   1.386       .  A
C1169      N1170   1.385       .  A
C1171      N1172   1.388       .  A
C1171      N1176   1.318       .  A
C1171      C1297   1.461       .  S
N1172      C1173   1.383       .  A
C1173      N1174   1.393       .  A
N1174      C1175   1.391       .  A
C1175      N1176   1.325       .  A
C1175      C1416   1.459       .  S
C1177      N1178   1.380       .  A
C1177      N1182   1.337       .  A
C1177      C1280   1.479       .  S
N1178      C1179   1.374       .  A
C1179      N1180   1.386       .  A
N1180      C1181   1.391       .  A
C1181      N1182   1.347       .  A
C1181      C1217   1.475       .  S
C1183      N1184   1.374       .  A
C1183      N1188   1.329       .  A
C1183      C1303   1.451       .  S
N1184      C1185   1.374       .  A
C1185      N1186   1.395       .  A
N1186      C1187   1.391       .  A
C1187      N1188   1.331       .  A
C1187      C1240   1.480       .  S
C1189      N1190   1.364       .  A
C1189      N1194   1.328       .  A
C1189      C1216   1.458       .  S
N1190      C1191   1.376       .  A
C1191      N1192   1.405       .  A
N1192      C1193   1.391       .  A
C1193      N1194   1.332       .  A
C1193      C1335   1.508       .  S
C1195      N1196   1.403       .  A
C1195      N1200   1.337       .  A
C1195      C1239   1.505       .  S
N1196      C1197   1.395       .  A
C1197      C1423   1.648       .  S
C1197      N1198   1.381       .  A
N1198      C1199   1.384       .  A
C1199      N1200   1.339       .  A
C1199      C1355   1.472       .  S
O1201      C1217   1.265       .  A
O1201     Zn1207   2.060       .  S
C1202      O1786   1.276   1_455  A
O1203     Cd1210   2.074       .  S
O1204      C1222   1.231       .  A
O1204     Cd1213   1.937       .  S
O1205     Cd1209   2.113   1_455  S
O1206      C1785   1.289       .  A
O1206     Cd1209   2.163       .  S
Zn1207     O1218   2.158       .  S
Zn1207     O1220   1.991       .  S
Zn1207     O1212   1.867   1_545  S
O1208      C1219   1.290       .  A
O1208     Cd1213   2.068       .  S
Cd1209     O1211   2.011   1_655  S
Cd1209     O1780   1.974       .  S
Cd1210     O1214   2.179       .  S
Cd1210     O1223   2.187       .  S
O1212     Cd1777   1.981       .  S
Cd1213     O1215   2.201       .  S
O1214      C1221   1.269       .  A
C1216      O1220   1.264       .  A
C1217      O1774   1.290   1_545  A
O1218      C1770   1.279   1_645  A
C1222      C1247   1.484       .  S
C1222      O1791   1.282       .  A
O1223      C1790   1.286   1_545  A
O1224      C1240   1.291       .  A
O1224     Zn1230   2.036       .  S
C1225      O1809   1.286       .  A
O1226     Cd1233   2.242       .  S
O1227      C1245   1.275       .  A
O1227     Cd1236   2.284       .  S
O1228     Cd1232   2.129       .  S
O1229      C1808   1.281       .  A
O1229     Cd1232   2.095       .  S
Zn1230     O1241   2.140       .  S
Zn1230     O1243   1.879       .  S
Zn1230     O1235   1.887   1_545  S
O1231      C1242   1.271       .  A
O1231     Cd1236   2.288       .  S
Cd1232     O1234   2.004   1_655  S
Cd1232     O1803   1.935       .  S
Cd1233     O1237   2.210       .  S
Cd1233     O1246   2.151   1_545  S
O1235     Cd1800   1.949       .  S
Cd1236     O1238   2.290       .  S
O1237      C1244   1.272       .  A
C1239      O1243   1.240       .  A
C1240      O1797   1.285       .  A
O1241      C1793   1.286       .  A
C1245      C1253   1.498       .  S
C1245      O1814   1.296       .  A
O1246      C1813   1.292       .  A
C1247      N1248   1.400       .  A
C1247      N1252   1.317       .  A
N1248      C1249   1.393       .  A
C1249      N1250   1.383       .  A
N1250      C1251   1.386       .  A
C1251      N1252   1.321       .  A
C1251      C1275   1.445       .  S
C1253      N1254   1.340       .  A
C1253      N1258   1.384       .  A
N1254      C1255   1.333       .  A
C1255      N1256   1.396       .  A
C1255      C1298   1.517       .  S
N1256      C1257   1.404       .  A
C1257      C1421   1.639       .  S
C1257      N1258   1.393       .  A
O1259      C1275   1.271       .  A
O1259     Zn1265   2.004       .  S
C1260      C2154   1.488   1_554  S
C1260      O1844   1.287       .  A
C1260      O1273   1.265   1_565  A
O1261      C1274   1.311       .  A
O1261     Cd1268   2.281       .  S
O1262      C1280   1.263       .  A
O1262     Cd1271   2.130       .  S
O1263      C1277   1.279       .  A
O1263     Cd1267   2.000       .  S
O1264      C1843   1.268       .  A
O1264     Cd1267   2.117   1_565  S
Zn1265     O1276   2.036       .  S
Zn1265     O1278   1.834       .  S
Zn1265     O1270   1.864       .  S
O1266      C1277   1.270       .  A
O1266     Cd1271   2.285       .  S
Cd1267     O1269   2.074       .  S
Cd1267     O1838   1.914       .  S
Cd1268     O1272   2.266       .  S
Cd1268     O1281   2.217       .  S
Cd1268     O1270   1.952       .  S
O1269      C1847   1.244       .  A
O1270     Cd1835   1.964       .  S
O1270     Cd1839   2.087       .  S
Cd1271     O1273   2.272       .  S
Cd1271     O1838   2.058       .  S
O1272      C1279   1.288       .  A
C1274      O1278   1.244       .  A
C1275      O1832   1.272       .  A
O1276      C1828   1.281       .  A
C1277      C1307   1.443       .  S
C1279      C1851   1.533       .  S
C1279      O1837   1.242       .  A
C1280      O1849   1.309   1_545  A
O1281      C1848   1.301       .  A
O1282      C1298   1.291       .  A
O1282     Zn1288   2.294       .  S
C1283      C1847   1.529       .  S
C1283      O1867   1.272       .  A
C1283      O1296   1.278       .  A
O1284      C1297   1.309       .  A
O1284     Cd1291   2.229       .  S
O1285      C1303   1.265       .  A
O1285     Cd1294   2.180       .  S
O1286      C1300   1.299       .  A
O1286     Cd1290   2.273       .  S
O1287      C1866   1.289   1_545  A
O1287     Cd1290   2.119       .  S
Zn1288     O1299   2.294       .  S
Zn1288     O1301   1.978       .  S
Zn1288     O1293   2.004       .  S
O1289      C1300   1.285       .  A
O1289     Cd1294   2.348       .  S
Cd1290     O1292   2.053   1_545  S
Cd1290     O1861   1.925       .  S
Cd1291     O1295   2.188       .  S
Cd1291     O1304   2.214       .  S
Cd1291     O1293   2.007       .  S
O1292      C1870   1.231       .  A
O1293     Cd1858   1.953       .  S
O1293     Cd1862   2.076       .  S
Cd1294     O1296   2.337       .  S
Cd1294     O1861   2.107       .  S
O1295      C1302   1.268       .  A
C1297      O1301   1.256       .  A
C1298      O1855   1.287       .  A
O1299      C1851   1.287       .  A
C1300      C1313   1.537       .  S
C1302      C2112   1.492       .  S
C1302      O1860   1.233       .  A
C1303      O1872   1.295       .  A
O1304      C1871   1.301       .  A
C1305      N1306   1.317       .  A
C1305      N1310   1.396       .  A
C1305      C1390   1.484       .  S
N1306      C1307   1.326       .  A
C1307      N1308   1.381       .  A
N1308      C1309   1.382       .  A
C1309      N1310   1.392       .  A
C1311      N1312   1.338       .  A
C1311      N1316   1.375       .  A
C1311      C1413   1.479       .  S
N1312      C1313   1.339       .  A
C1313      N1314   1.404       .  A
N1314      C1315   1.415       .  A
C1315      C1423   1.638       .  S
C1315      N1316   1.379       .  A
O1317      C1333   1.293       .  A
O1317     Zn1323   2.278       .  S
C1318      O1334   1.284       .  A
O1319     Cd1326   2.246       .  S
O1320      C1338   1.269       .  A
O1320     Cd1329   2.190   1_655  S
O1321     Cd1325   2.237       .  S
O1322      C1333   1.280       .  A
O1322     Cd1325   2.265       .  S
Zn1323     O1334   2.244       .  S
Zn1323     O1336   2.045       .  S
Zn1323     O1328   1.970       .  S
O1324      C1335   1.288       .  A
O1324     Cd1329   2.337   1_655  S
Cd1325     O1327   1.914       .  S
Cd1325     O1328   1.795       .  S
Cd1326     O1330   2.492       .  S
Cd1326     O1339   2.274   1_455  S
Cd1329     O1331   2.321       .  S
O1330      C1337   1.326       .  A
C1332      O1336   1.263       .  A
C1333      C1365   1.534       .  S
C1338      O1339   1.307       .  A
O1340      C1356   1.281       .  A
O1340     Zn1346   2.070       .  S
C1341      O1357   1.291       .  A
C1341      O1354   1.283       .  A
O1342     Cd1349   2.165       .  S
O1343     Cd1352   1.944   1_455  S
O1344     Cd1348   2.297       .  S
O1345     Cd1348   2.254       .  S
Zn1346     O1357   2.052       .  S
Zn1346     O1359   1.914       .  S
Zn1346     O1351   1.905       .  S
O1347      C1358   1.273   1_655  A
O1347     Cd1352   2.051       .  S
Cd1348     O1350   2.069       .  S
Cd1349     O1353   2.164       .  S
Cd1349     O1362   2.145       .  S
O1350      C1360   1.252       .  A
O1351     Cd1352   1.963       .  S
Cd1352     O1354   2.119       .  S
O1353      C1360   1.293       .  A
C1355      O1359   1.255       .  A
C1360      C1373   1.456       .  S
C1361      O1362   1.275       .  A
C1363      N1364   1.335       .  A
C1363      N1368   1.367       .  A
C1363      C1396   1.475       .  S
N1364      C1365   1.337       .  A
C1365      N1366   1.402       .  A
N1366      C1367   1.413       .  A
C1367      N1368   1.379       .  A
C1369      N1370   1.408       .  A
C1369      N1374   1.342       .  A
C1369      C1419   1.508       .  S
N1370      C1371   1.397       .  A
C1371      C1421   1.640       .  S
C1371      N1372   1.365       .  A
N1372      C1373   1.376       .  A
C1373      N1374   1.340       .  A
O1375      C1391   1.288       .  A
O1375     Zn1381   2.030       .  S
C1376      C1418   1.504       .  S
C1376      O1392   1.284       .  A
C1376      O1389   1.287       .  A
O1377      C1390   1.285       .  A
O1377     Cd1384   2.176       .  S
O1378      C1396   1.271       .  A
O1378     Cd1387   2.243       .  S
O1379      C1393   1.290       .  A
O1379     Cd1383   2.126       .  S
O1380      C1391   1.285       .  A
O1380     Cd1383   2.119       .  S
Zn1381     O1392   2.118       .  S
Zn1381     O1394   1.869       .  S
Zn1381     O1386   1.866       .  S
O1382      C1393   1.276       .  A
O1382     Cd1387   2.317       .  S
Cd1383     O1385   1.998       .  S
Cd1383     O1386   1.952       .  S
Cd1384     O1388   2.162       .  S
Cd1384     O1397   2.141       .  S
Cd1384     O1386   2.085       .  S
O1385      C1395   1.249       .  A
O1386     Cd1387   2.066       .  S
Cd1387     O1389   2.349       .  S
O1388      C1395   1.267       .  A
C1390      O1394   1.236       .  A
C1395      C1683   1.482       .  S
C1396      O1397   1.290       .  A
O1398      C1414   1.267       .  A
O1398     Zn1404   2.078       .  S
C1399      C1679   1.484       .  S
C1399      O1415   1.270       .  A
C1399      O1412   1.284       .  A
O1400      C1413   1.301       .  A
O1400     Cd1407   2.223       .  S
O1401      C1419   1.237       .  A
O1401     Cd1410   1.939       .  S
O1402      C1416   1.281       .  A
O1402     Cd1406   2.078       .  S
O1403      C1414   1.288       .  A
O1403     Cd1406   2.151       .  S
Zn1404     O1415   2.100       .  S
Zn1404     O1417   2.015       .  S
Zn1404     O1409   1.893       .  S
O1405      C1416   1.288       .  A
O1405     Cd1410   2.061       .  S
Cd1406     O1408   2.012       .  S
Cd1406     O1409   1.955       .  S
Cd1407     O1411   2.205       .  S
Cd1407     O1420   2.250       .  S
Cd1407     O1409   2.124       .  S
O1408      C1418   1.245       .  A
O1409     Cd1410   1.937       .  S
Cd1410     O1412   2.149       .  S
O1411      C1418   1.273       .  A
C1413      O1417   1.265       .  A
C1419      O1420   1.291       .  A
C1421      C1427   1.627       .  S
C1421      C1453   1.622       .  S
C1422      C1433   1.617       .  S
C1422      C1457   1.636       .  S
C1422      C1533   1.652       .  S
C1422      C1651   1.626       .  S
C1423      C1439   1.637       .  S
C1423      C1463   1.614       .  S
C1424      C1445   1.592       .  S
C1424      C1469   1.618       .  S
C1424      C1475   1.599       .  S
C1424      C1593   1.636       .  S
C1425      N1426   1.382       .  A
C1425      N1430   1.326       .  A
C1425      C1616   1.460       .  S
N1426      C1427   1.378       .  A
C1427      N1428   1.390       .  A
N1428      C1429   1.391       .  A
C1429      N1430   1.330       .  A
C1429      C1503   1.465       .  S
C1431      N1432   1.386       .  A
C1431      N1436   1.331       .  A
N1432      C1433   1.390       .  A
C1433      N1434   1.384       .  A
N1434      C1435   1.382       .  A
C1435      N1436   1.332       .  A
C1435      C1526   1.468       .  S
C1437      N1438   1.395       .  A
C1437      N1442   1.343       .  A
C1437      C1675   1.487       .  S
N1438      C1439   1.392       .  A
C1439      N1440   1.376       .  A
N1440      C1441   1.383       .  A
C1441      N1442   1.335       .  A
C1441      C1622   1.475       .  S
C1443      N1444   1.377       .  A
C1443      N1448   1.341       .  A
C1443      C1625   1.479       .  S
N1444      C1445   1.385       .  A
C1445      N1446   1.374       .  A
N1446      C1447   1.374       .  A
C1447      N1448   1.340       .  A
C1447      C1698   1.462       .  S
C1449      N1450   1.332       .  A
C1449      N1454   1.386       .  A
C1449      C1558   1.485       .  S
N1450      C1451   1.340       .  A
C1451      N1452   1.390       .  A
C1451      C1677   1.484       .  S
N1452      C1453   1.391       .  A
C1453      N1454   1.383       .  A
C1455      N1456   1.387       .  A
C1455      N1460   1.314       .  A
C1455      C1581   1.454       .  S
N1456      C1457   1.382       .  A
C1457      N1458   1.392       .  A
N1458      C1459   1.389       .  A
C1459      N1460   1.322       .  A
C1459      C1700   1.453       .  S
C1461      N1462   1.377       .  A
C1461      N1466   1.336       .  A
C1461      C1564   1.470       .  S
N1462      C1463   1.372       .  A
C1463      N1464   1.388       .  A
N1464      C1465   1.392       .  A
C1465      N1466   1.343       .  A
C1465      C1501   1.474       .  S
C1467      N1468   1.370       .  A
C1467      N1472   1.331       .  A
C1467      C1587   1.453       .  S
N1468      C1469   1.375       .  A
C1469      N1470   1.394       .  A
N1470      C1471   1.387       .  A
C1471      N1472   1.330       .  A
C1471      C1524   1.476       .  S
C1473      N1474   1.361       .  A
C1473      N1478   1.322       .  A
C1473      C1500   1.439       .  S
N1474      C1475   1.368       .  A
C1475      N1476   1.405       .  A
N1476      C1477   1.391       .  A
C1477      N1478   1.328       .  A
C1477      C1619   1.504       .  S
C1479      N1480   1.401       .  A
C1479      N1484   1.338       .  A
C1479      C1523   1.499       .  S
N1480      C1481   1.393       .  A
C1481      N1482   1.379       .  A
N1482      C1483   1.381       .  A
C1483      N1484   1.340       .  A
C1483      C1639   1.471       .  S
O1485      C1501   1.266       .  A
O1485     Zn1491   2.073       .  S
C1486      O2070   1.280   1_455  A
O1487     Cd1494   2.054       .  S
O1488      C1506   1.230       .  A
O1488     Cd1497   1.939       .  S
O1489     Cd1493   2.102   1_455  S
O1490      C2069   1.288       .  A
O1490     Cd1493   2.143       .  S
Zn1491     O1502   2.162       .  S
Zn1491     O1504   1.947       .  S
Zn1491     O1496   1.833   1_545  S
O1492      C1503   1.290       .  A
O1492     Cd1497   2.053       .  S
Cd1493     O1495   2.009   1_655  S
Cd1493     O2064   1.973       .  S
Cd1494     O1498   2.177       .  S
Cd1494     O1507   2.164       .  S
O1496     Cd2061   1.963       .  S
Cd1497     O1499   2.194       .  S
O1498      C1505   1.269       .  A
C1500      O1504   1.261       .  A
C1501      O2058   1.288   1_545  A
O1502      C2054   1.278   1_655  A
C1506      C1531   1.495       .  S
C1506      O2075   1.286       .  A
O1507      C2074   1.280   1_545  A
O1508      C1524   1.291       .  A
O1508     Zn1514   2.021       .  S
C1509      O2093   1.286       .  A
O1510     Cd1517   2.226       .  S
O1511      C1529   1.275       .  A
O1511     Cd1520   2.248       .  S
O1512     Cd1516   2.134       .  S
O1513      C2092   1.280       .  A
O1513     Cd1516   2.099       .  S
Zn1514     O1525   2.119       .  S
Zn1514     O1527   1.878       .  S
Zn1514     O1519   1.847   1_545  S
O1515      C1526   1.273       .  A
O1515     Cd1520   2.289       .  S
Cd1516     O1518   2.008   1_655  S
Cd1516     O2087   1.950       .  S
Cd1517     O1521   2.212       .  S
Cd1517     O1530   2.204   1_545  S
O1519     Cd2084   1.934       .  S
Cd1520     O1522   2.287       .  S
O1521      C1528   1.271       .  A
C1523      O1527   1.241       .  A
C1524      O2081   1.282       .  A
O1525      C2077   1.288       .  A
C1529      C1537   1.491       .  S
C1529      O2098   1.297       .  A
O1530      C2097   1.301       .  A
C1531      N1532   1.399       .  A
C1531      N1536   1.320       .  A
N1532      C1533   1.397       .  A
C1533      N1534   1.391       .  A
N1534      C1535   1.388       .  A
C1535      N1536   1.330       .  A
C1535      C1559   1.471       .  S
C1537      N1538   1.341       .  A
C1537      N1542   1.380       .  A
N1538      C1539   1.335       .  A
C1539      N1540   1.401       .  A
C1539      C1582   1.525       .  S
N1540      C1541   1.407       .  A
C1541      N1542   1.388       .  A
O1543      C1559   1.288       .  A
O1543     Zn1549   1.990       .  S
C1544      C1870   1.492   1_545  S
C1544      O2128   1.279   1_545  A
C1544      O1557   1.259       .  A
O1545      C1558   1.300       .  A
O1545     Cd1552   2.210       .  S
O1546      C1564   1.251       .  A
O1546     Cd1555   2.062       .  S
O1547      C1561   1.270       .  A
O1547     Cd1551   2.117       .  S
O1548      C2127   1.273   1_545  A
O1548     Cd1551   1.994       .  S
Zn1549     O1560   2.056       .  S
Zn1549     O1562   1.900       .  S
Zn1549     O1554   1.857       .  S
O1550      C1561   1.269       .  A
O1550     Cd1555   2.199       .  S
Cd1551     O1553   2.061   1_545  S
Cd1551     O2122   1.971       .  S
Cd1552     O1556   2.267       .  S
Cd1552     O1565   2.255       .  S
Cd1552     O1554   1.930       .  S
O1553      C2131   1.242       .  A
O1554     Cd2119   1.931       .  S
O1554     Cd2123   2.060       .  S
Cd1555     O1557   2.263       .  S
Cd1555     O2122   2.100       .  S
O1556      C1563   1.288       .  A
C1558      O1562   1.249       .  A
C1559      O2116   1.269       .  A
O1560      C2112   1.286       .  A
C1561      C1591   1.457       .  S
C1563      C2135   1.534       .  S
C1563      O2121   1.244       .  A
C1564      O2133   1.301       .  A
O1565      C2132   1.309       .  A
O1566      C1582   1.295       .  A
O1566     Zn1572   2.338       .  S
C1567      C2131   1.533   1_545  S
C1567      O2151   1.286       .  A
C1567      O1580   1.270       .  A
O1568      C1581   1.311       .  A
O1568     Cd1575   2.231       .  S
O1569      C1587   1.264       .  A
O1569     Cd1578   2.151       .  S
O1570      C1584   1.298       .  A
O1570     Cd1574   2.258       .  S
O1571      C2150   1.288   1_545  A
O1571     Cd1574   2.134       .  S
Zn1572     O1583   2.273       .  S
Zn1572     O1585   1.975       .  S
Zn1572     O1577   1.980       .  S
O1573      C1584   1.286       .  A
O1573     Cd1578   2.362       .  S
Cd1574     O1576   2.027   1_545  S
Cd1574     O2145   1.953       .  S
Cd1575     O1579   2.192       .  S
Cd1575     O1588   2.173       .  S
Cd1575     O1577   2.009       .  S
O1576      C2154   1.233       .  A
O1577     Cd2142   1.927       .  S
O1577     Cd2146   2.102       .  S
Cd1578     O1580   2.368       .  S
Cd1578     O2145   2.099       .  S
O1579      C1586   1.266       .  A
C1581      O1585   1.259       .  A
C1582      O2139   1.290       .  A
O1583      C2135   1.273       .  A
C1584      C1597   1.539       .  S
C1586      C1828   1.487   1_556  S
C1586      O2144   1.230       .  A
C1587      O2156   1.297       .  A
O1588      C2155   1.297       .  A
C1589      N1590   1.324       .  A
C1589      N1594   1.394       .  A
C1589      C1674   1.486       .  S
N1590      C1591   1.332       .  A
C1591      N1592   1.382       .  A
N1592      C1593   1.387       .  A
C1593      N1594   1.388       .  A
C1595      N1596   1.340       .  A
C1595      N1600   1.374       .  A
C1595      C1697   1.480       .  S
N1596      C1597   1.342       .  A
C1597      N1598   1.403       .  A
N1598      C1599   1.414       .  A
C1599      N1600   1.378       .  A
O1601      C1617   1.291       .  A
O1601     Zn1607   2.262       .  S
C1602      O1618   1.284       .  A
O1603     Cd1610   2.233       .  S
O1604      C1622   1.267       .  A
O1604     Cd1613   2.186   1_655  S
O1605     Cd1609   2.233       .  S
O1606      C1617   1.279       .  A
O1606     Cd1609   2.263       .  S
Zn1607     O1618   2.252       .  S
Zn1607     O1620   2.046       .  S
Zn1607     O1612   1.967       .  S
O1608      C1619   1.288       .  A
O1608     Cd1613   2.332   1_655  S
Cd1609     O1611   1.915       .  S
Cd1609     O1612   1.795       .  S
Cd1610     O1614   2.496       .  S
Cd1610     O1623   2.257   1_455  S
Cd1613     O1615   2.343       .  S
O1614      C1621   1.325       .  A
C1616      O1620   1.264       .  A
C1617      C1649   1.527       .  S
C1622      O1623   1.306       .  A
O1624      C1640   1.264   1_656  A
O1624     Zn1630   2.136       .  S
C1625      O1641   1.282       .  A
C1625      O1638   1.278       .  A
O1626     Cd1633   2.158       .  S
O1627     Cd1636   1.957   1_455  S
O1628     Cd1632   2.289       .  S
O1629     Cd1632   2.261       .  S
Zn1630     O1641   2.161       .  S
Zn1630     O1643   2.037       .  S
Zn1630     O1635   2.081       .  S
O1631      C1642   1.270       .  A
O1631     Cd1636   2.057   1_455  S
Cd1632     O1634   2.083       .  S
Cd1633     O1637   2.180       .  S
Cd1633     O1646   2.141       .  S
O1634      C1644   1.254       .  A
O1635     Cd1636   2.001       .  S
Cd1636     O1638   2.099       .  S
O1637      C1644   1.295       .  A
C1639      O1643   1.261       .  A
C1644      C1657   1.463       .  S
C1645      O1646   1.272       .  A
C1647      N1648   1.335       .  A
C1647      N1652   1.371       .  A
C1647      C1680   1.479       .  S
N1648      C1649   1.336       .  A
C1649      N1650   1.397       .  A
N1650      C1651   1.410       .  A
C1651      N1652   1.382       .  A
C1653      N1654   1.408       .  A
C1653      N1658   1.343       .  A
C1653      C1703   1.509       .  S
N1654      C1655   1.397       .  A
C1655      N1656   1.369       .  A
N1656      C1657   1.378       .  A
C1657      N1658   1.342       .  A
O1659      C1675   1.288       .  A
O1659     Zn1665   2.027       .  S
C1660      C1702   1.509       .  S
C1660      O1676   1.283       .  A
C1660      O1673   1.284       .  A
O1661      C1674   1.286       .  A
O1661     Cd1668   2.181       .  S
O1662      C1680   1.270       .  A
O1662     Cd1671   2.269       .  S
O1663      C1677   1.290       .  A
O1663     Cd1667   2.140       .  S
O1664      C1675   1.284       .  A
O1664     Cd1667   2.122       .  S
Zn1665     O1676   2.126       .  S
Zn1665     O1678   1.878       .  S
Zn1665     O1670   1.886       .  S
O1666      C1677   1.280       .  A
O1666     Cd1671   2.303       .  S
Cd1667     O1669   1.996       .  S
Cd1667     O1670   1.960       .  S
Cd1668     O1672   2.157       .  S
Cd1668     O1681   2.105       .  S
Cd1668     O1670   2.053       .  S
O1669      C1679   1.250       .  A
O1670     Cd1671   2.084       .  S
Cd1671     O1673   2.328       .  S
O1672      C1679   1.266       .  A
C1674      O1678   1.239       .  A
C1680      O1681   1.286       .  A
O1682      C1698   1.270       .  A
O1682     Zn1688   2.093       .  S
C1683      O1699   1.272   1_554  A
C1683      O1696   1.283   1_554  A
O1684      C1697   1.300       .  A
O1684     Cd1691   2.214       .  S
O1685      C1703   1.237       .  A
O1685     Cd1694   1.935       .  S
O1686      C1700   1.277       .  A
O1686     Cd1690   2.063       .  S
O1687      C1698   1.285       .  A
O1687     Cd1690   2.126       .  S
Zn1688     O1699   2.114       .  S
Zn1688     O1701   2.022       .  S
Zn1688     O1693   1.888       .  S
O1689      C1700   1.287       .  A
O1689     Cd1694   2.054       .  S
Cd1690     O1692   2.006       .  S
Cd1690     O1693   1.953       .  S
Cd1691     O1695   2.216       .  S
Cd1691     O1704   2.250       .  S
Cd1691     O1693   2.129       .  S
O1692      C1702   1.245       .  A
O1693     Cd1694   1.932       .  S
Cd1694     O1696   2.138       .  S
O1695      C1702   1.273       .  A
C1697      O1701   1.265       .  A
C1703      O1704   1.289       .  A
C1705      C1711   1.627       .  S
C1705      C1737   1.619       .  S
C1705      C2109   1.636   1_554  S
C1705      C2223   1.631   1_554  S
C1706      C1717   1.618       .  S
C1706      C1741   1.634       .  S
C1706      C1817   1.649       .  S
C1706      C1935   1.625       .  S
C1707      C1723   1.636       .  S
C1707      C1747   1.614       .  S
C1707      C2049   1.636   1_554  S
C1707      C2167   1.641   1_554  S
C1708      C1729   1.600       .  S
C1708      C1753   1.617       .  S
C1708      C1759   1.606       .  S
C1708      C1877   1.639       .  S
C1709      N1710   1.381       .  A
C1709      N1714   1.331       .  A
C1709      C1900   1.466       .  S
N1710      C1711   1.378       .  A
C1711      N1712   1.390       .  A
N1712      C1713   1.390       .  A
C1713      N1714   1.335       .  A
C1713      C1787   1.472       .  S
C1715      N1716   1.384       .  A
C1715      N1720   1.338       .  A
N1716      C1717   1.392       .  A
C1717      N1718   1.386       .  A
N1718      C1719   1.383       .  A
C1719      N1720   1.335       .  A
C1719      C1810   1.483       .  S
C1721      N1722   1.394       .  A
C1721      N1726   1.347       .  A
C1721      C1959   1.488       .  S
N1722      C1723   1.389       .  A
C1723      N1724   1.380       .  A
N1724      C1725   1.384       .  A
C1725      N1726   1.339       .  A
C1725      C1906   1.485       .  S
C1727      N1728   1.383       .  A
C1727      N1732   1.331       .  A
C1727      C1909   1.470       .  S
N1728      C1729   1.384       .  A
C1729      N1730   1.378       .  A
N1730      C1731   1.377       .  A
C1731      N1732   1.333       .  A
C1731      C1982   1.456       .  S
C1733      N1734   1.334       .  A
C1733      N1738   1.381       .  A
C1733      C1842   1.478       .  S
N1734      C1735   1.341       .  A
C1735      N1736   1.392       .  A
C1735      C1961   1.487       .  S
N1736      C1737   1.393       .  A
C1737      N1738   1.377       .  A
C1739      N1740   1.385       .  A
C1739      N1744   1.319       .  A
C1739      C1865   1.458       .  S
N1740      C1741   1.381       .  A
C1741      N1742   1.390       .  A
N1742      C1743   1.389       .  A
C1743      N1744   1.326       .  A
C1743      C1984   1.456       .  S
C1745      N1746   1.377       .  A
C1745      N1750   1.338       .  A
C1745      C1848   1.474       .  S
N1746      C1747   1.371       .  A
C1747      N1748   1.388       .  A
N1748      C1749   1.392       .  A
C1749      N1750   1.347       .  A
C1749      C1785   1.478       .  S
C1751      N1752   1.369       .  A
C1751      N1756   1.330       .  A
C1751      C1871   1.450       .  S
N1752      C1753   1.371       .  A
C1753      N1754   1.394       .  A
N1754      C1755   1.389       .  A
C1755      N1756   1.331       .  A
C1755      C1808   1.475       .  S
C1757      N1758   1.362       .  A
C1757      N1762   1.324       .  A
C1757      C1784   1.450       .  S
N1758      C1759   1.373       .  A
C1759      N1760   1.407       .  A
N1760      C1761   1.397       .  A
C1761      N1762   1.330       .  A
C1761      C1903   1.510       .  S
C1763      N1764   1.402       .  A
C1763      N1768   1.339       .  A
C1763      C1807   1.498       .  S
N1764      C1765   1.394       .  A
C1765      C1991   1.658       .  S
C1765      N1766   1.387       .  A
N1766      C1767   1.387       .  A
C1767      N1768   1.342       .  A
C1767      C1923   1.489       .  S
O1769      C1785   1.266       .  A
O1769     Zn1775   2.069       .  S
O1771     Cd1778   2.147       .  S
O1772      C1790   1.232       .  A
O1772     Cd1781   1.934       .  S
O1773     Cd1777   2.118   1_455  S
O1774     Cd1777   2.164       .  S
Zn1775     O1786   2.146       .  S
Zn1775     O1788   1.973       .  S
Zn1775     O1780   1.867       .  S
O1776      C1787   1.287       .  A
O1776     Cd1781   2.066       .  S
Cd1777     O1779   2.008   1_655  S
Cd1778     O1782   2.167       .  S
Cd1778     O1791   2.166       .  S
Cd1781     O1783   2.165       .  S
O1782      C1789   1.266       .  A
C1784      O1788   1.263       .  A
C1790      C1815   1.487       .  S
O1792      C1808   1.289       .  A
O1792     Zn1798   2.020       .  S
O1794     Cd1801   2.230       .  S
O1795      C1813   1.273       .  A
O1795     Cd1804   2.284       .  S
O1796     Cd1800   2.168       .  S
O1797     Cd1800   2.112   1_545  S
Zn1798     O1809   2.106       .  S
Zn1798     O1811   1.878       .  S
Zn1798     O1803   1.852       .  S
O1799      C1810   1.274       .  A
O1799     Cd1804   2.310       .  S
Cd1800     O1802   2.006   1_565  S
Cd1801     O1805   2.208       .  S
Cd1801     O1814   2.173       .  S
Cd1804     O1806   2.298       .  S
O1805      C1812   1.272       .  A
C1807      O1811   1.241       .  A
C1813      C1821   1.493       .  S
C1815      N1816   1.398       .  A
C1815      N1820   1.317       .  A
N1816      C1817   1.394       .  A
C1817      N1818   1.392       .  A
N1818      C1819   1.389       .  A
C1819      N1820   1.326       .  A
C1819      C1843   1.467       .  S
C1821      N1822   1.340       .  A
C1821      N1826   1.381       .  A
N1822      C1823   1.333       .  A
C1823      N1824   1.400       .  A
C1823      C1866   1.520       .  S
N1824      C1825   1.406       .  A
C1825      C1989   1.641       .  S
C1825      N1826   1.390       .  A
O1827      C1843   1.288       .  A
O1827     Zn1833   1.986       .  S
C1828      O1841   1.256       .  A
O1829      C1842   1.297       .  A
O1829     Cd1836   2.202       .  S
O1830      C1848   1.252       .  A
O1830     Cd1839   2.073       .  S
O1831      C1845   1.272       .  A
O1831     Cd1835   2.122       .  S
O1832     Cd1835   1.995       .  S
Zn1833     O1844   2.049       .  S
Zn1833     O1846   1.876       .  S
Zn1833     O1838   1.830   1_565  S
O1834      C1845   1.269       .  A
O1834     Cd1839   2.200       .  S
Cd1835     O1837   2.068       .  S
Cd1836     O1840   2.257       .  S
Cd1836     O1849   2.239       .  S
Cd1836     O1838   1.927   1_565  S
Cd1839     O1841   2.258       .  S
O1840      C1847   1.286   1_565  A
C1842      O1846   1.248       .  A
C1845      C1875   1.457       .  S
O1850      C1866   1.293       .  A
O1850     Zn1856   2.328   1_565  S
C1851      O1864   1.267       .  A
O1852      C1865   1.309       .  A
O1852     Cd1859   2.231       .  S
O1853      C1871   1.261       .  A
O1853     Cd1862   2.119       .  S
O1854      C1868   1.296       .  A
O1854     Cd1858   2.245       .  S
O1855     Cd1858   2.118       .  S
Zn1856     O1867   2.258       .  S
Zn1856     O1869   1.983   1_545  S
Zn1856     O1861   1.971       .  S
O1857      C1868   1.282       .  A
O1857     Cd1862   2.350       .  S
Cd1858     O1860   2.031       .  S
Cd1859     O1863   2.195       .  S
Cd1859     O1872   2.158   1_565  S
Cd1859     O1861   2.004   1_565  S
Cd1862     O1864   2.368       .  S
O1863      C1870   1.266       .  A
C1865      O1869   1.261       .  A
C1868      C1881   1.529       .  S
C1873      N1874   1.324       .  A
C1873      N1878   1.394       .  A
C1873      C1958   1.491       .  S
N1874      C1875   1.333       .  A
C1875      N1876   1.381       .  A
N1876      C1877   1.387       .  A
C1877      N1878   1.390       .  A
C1879      N1880   1.339       .  A
C1879      N1884   1.378       .  A
C1879      C1981   1.487       .  S
N1880      C1881   1.341       .  A
C1881      N1882   1.401       .  A
N1882      C1883   1.410       .  A
C1883      C1991   1.637       .  S
C1883      N1884   1.382       .  A
O1885      C1901   1.292       .  A
O1885     Zn1891   2.262       .  S
C1886      O1902   1.282       .  A
O1887     Cd1894   2.241       .  S
O1888      C1906   1.266       .  A
O1888     Cd1897   2.186   1_655  S
O1889     Cd1893   2.259       .  S
O1890      C1901   1.280       .  A
O1890     Cd1893   2.233       .  S
Zn1891     O1902   2.230       .  S
Zn1891     O1904   2.051       .  S
Zn1891     O1896   1.966       .  S
O1892      C1903   1.289       .  A
O1892     Cd1897   2.348   1_655  S
Cd1893     O1895   1.919       .  S
Cd1893     O1896   1.798       .  S
Cd1894     O1898   2.505       .  S
Cd1894     O1907   2.263   1_455  S
Cd1897     O1899   2.330       .  S
O1898      C1905   1.327       .  A
C1900      O1904   1.266       .  A
C1901      C1933   1.523       .  S
C1906      O1907   1.308       .  A
O1908      C1924   1.283       .  A
O1908     Zn1914   2.029       .  S
C1909      O1925   1.282       .  A
C1909      O1922   1.273       .  A
O1910     Cd1917   2.216       .  S
O1911     Cd1920   1.949       .  S
O1912     Cd1916   2.284       .  S
O1913     Cd1916   2.263       .  S
Zn1914     O1925   2.072       .  S
Zn1914     O1927   1.914       .  S
Zn1914     O1919   1.915       .  S
O1915      C1926   1.281       .  A
O1915     Cd1920   2.134   1_455  S
Cd1916     O1918   2.124       .  S
Cd1917     O1921   2.166       .  S
Cd1917     O1930   2.162       .  S
O1918      C1928   1.259       .  A
O1919     Cd1920   1.964       .  S
Cd1920     O1922   2.035       .  S
O1921      C1928   1.293       .  A
C1923      O1927   1.256       .  A
C1928      C1941   1.464       .  S
C1929      O1930   1.275       .  A
C1931      N1932   1.334       .  A
C1931      N1936   1.373       .  A
C1931      C1964   1.479       .  S
N1932      C1933   1.337       .  A
C1933      N1934   1.395       .  A
N1934      C1935   1.408       .  A
C1935      N1936   1.382       .  A
C1937      N1938   1.409       .  A
C1937      N1942   1.342       .  A
C1937      C1987   1.515       .  S
N1938      C1939   1.400       .  A
C1939      C1989   1.649       .  S
C1939      N1940   1.371       .  A
N1940      C1941   1.377       .  A
C1941      N1942   1.343       .  A
O1943      C1959   1.289       .  A
O1943     Zn1949   2.031       .  S
C1944      C1986   1.509       .  S
C1944      O1960   1.284       .  A
C1944      O1957   1.285       .  A
O1945      C1958   1.288       .  A
O1945     Cd1952   2.194       .  S
O1946      C1964   1.270       .  A
O1946     Cd1955   2.269       .  S
O1947      C1961   1.291       .  A
O1947     Cd1951   2.142       .  S
O1948      C1959   1.286       .  A
O1948     Cd1951   2.125       .  S
Zn1949     O1960   2.132       .  S
Zn1949     O1962   1.886       .  S
Zn1949     O1954   1.878       .  S
O1950      C1961   1.281       .  A
O1950     Cd1955   2.319       .  S
Cd1951     O1953   1.995       .  S
Cd1951     O1954   1.949       .  S
Cd1952     O1956   2.156       .  S
Cd1952     O1965   2.117       .  S
Cd1952     O1954   2.051       .  S
O1953      C1963   1.251       .  A
O1954     Cd1955   2.073       .  S
Cd1955     O1957   2.331       .  S
O1956      C1963   1.266       .  A
C1958      O1962   1.238       .  A
C1963      C2251   1.483       .  S
C1964      O1965   1.289       .  A
O1966      C1982   1.270       .  A
O1966     Zn1972   2.089       .  S
C1967      C2247   1.486       .  S
C1967      O1983   1.275       .  A
C1967      O1980   1.283       .  A
O1968      C1981   1.304       .  A
O1968     Cd1975   2.243       .  S
O1969      C1987   1.238       .  A
O1969     Cd1978   1.937       .  S
O1970      C1984   1.276       .  A
O1970     Cd1974   2.062       .  S
O1971      C1982   1.284       .  A
O1971     Cd1974   2.118       .  S
Zn1972     O1983   2.129       .  S
Zn1972     O1985   2.020       .  S
Zn1972     O1977   1.877       .  S
O1973      C1984   1.288       .  A
O1973     Cd1978   2.056       .  S
Cd1974     O1976   2.009       .  S
Cd1974     O1977   1.954       .  S
Cd1975     O1979   2.217       .  S
Cd1975     O1988   2.265       .  S
Cd1975     O1977   2.122       .  S
O1976      C1986   1.246       .  A
O1977     Cd1978   1.927       .  S
Cd1978     O1980   2.139       .  S
O1979      C1986   1.274       .  A
C1981      O1985   1.264       .  A
C1987      O1988   1.294       .  A
C1989      C1995   1.637       .  S
C1989      C2021   1.637       .  S
C1990      C2001   1.610       .  S
C1990      C2025   1.640       .  S
C1990      C2101   1.650       .  S
C1990      C2219   1.616       .  S
C1991      C2007   1.618       .  S
C1991      C2031   1.614       .  S
C1992      C2013   1.602       .  S
C1992      C2037   1.627       .  S
C1992      C2043   1.617       .  S
C1992      C2161   1.651       .  S
C1993      N1994   1.382       .  A
C1993      N1998   1.325       .  A
C1993      C2184   1.462       .  S
N1994      C1995   1.378       .  A
C1995      N1996   1.395       .  A
N1996      C1997   1.397       .  A
C1997      N1998   1.332       .  A
C1997      C2071   1.477       .  S
C1999      N2000   1.384       .  A
C1999      N2004   1.338       .  A
N2000      C2001   1.392       .  A
C2001      N2002   1.384       .  A
N2002      C2003   1.379       .  A
C2003      N2004   1.334       .  A
C2003      C2094   1.475       .  S
C2005      N2006   1.392       .  A
C2005      N2010   1.324       .  A
C2005      C2243   1.475       .  S
N2006      C2007   1.395       .  A
C2007      N2008   1.376       .  A
N2008      C2009   1.372       .  A
C2009      N2010   1.321       .  A
C2009      C2190   1.444       .  S
C2011      N2012   1.383       .  A
C2011      N2016   1.333       .  A
C2011      C2193   1.470       .  S
N2012      C2013   1.387       .  A
C2013      N2014   1.381       .  A
N2014      C2015   1.376       .  A
C2015      N2016   1.327       .  A
C2015      C2266   1.462       .  S
C2017      N2018   1.332       .  A
C2017      N2022   1.392       .  A
C2017      C2126   1.499       .  S
N2018      C2019   1.345       .  A
C2019      N2020   1.393       .  A
C2019      C2245   1.487       .  S
N2020      C2021   1.393       .  A
C2021      N2022   1.386       .  A
C2023      N2024   1.386       .  A
C2023      N2028   1.323       .  A
C2023      C2149   1.463       .  S
N2024      C2025   1.382       .  A
C2025      N2026   1.393       .  A
N2026      C2027   1.392       .  A
C2027      N2028   1.329       .  A
C2027      C2268   1.468       .  S
C2029      N2030   1.380       .  A
C2029      N2034   1.338       .  A
C2029      C2132   1.479       .  S
N2030      C2031   1.373       .  A
C2031      N2032   1.386       .  A
N2032      C2033   1.391       .  A
C2033      N2034   1.346       .  A
C2033      C2069   1.470       .  S
C2035      N2036   1.375       .  A
C2035      N2040   1.332       .  A
C2035      C2155   1.458       .  S
N2036      C2037   1.375       .  A
C2037      N2038   1.395       .  A
N2038      C2039   1.391       .  A
C2039      N2040   1.334       .  A
C2039      C2092   1.482       .  S
C2041      N2042   1.368       .  A
C2041      N2046   1.333       .  A
C2041      C2068   1.460       .  S
N2042      C2043   1.376       .  A
C2043      N2044   1.405       .  A
N2044      C2045   1.396       .  A
C2045      N2046   1.333       .  A
C2045      C2187   1.512       .  S
C2047      N2048   1.402       .  A
C2047      N2052   1.340       .  A
C2047      C2091   1.503       .  S
N2048      C2049   1.396       .  A
C2049      N2050   1.374       .  A
N2050      C2051   1.377       .  A
C2051      N2052   1.342       .  A
C2051      C2207   1.469       .  S
O2053      C2069   1.267       .  A
O2053     Zn2059   2.074       .  S
O2055     Cd2062   2.172       .  S
O2056      C2074   1.230       .  A
O2056     Cd2065   1.915       .  S
O2057     Cd2061   2.095   1_455  S
O2058     Cd2061   2.152       .  S
Zn2059     O2070   2.166       .  S
Zn2059     O2072   1.976       .  S
Zn2059     O2064   1.850       .  S
O2060      C2071   1.288       .  A
O2060     Cd2065   2.076       .  S
Cd2061     O2063   2.000   1_655  S
Cd2062     O2066   2.189       .  S
Cd2062     O2075   2.204       .  S
Cd2065     O2067   2.164       .  S
O2066      C2073   1.269       .  A
C2068      O2072   1.263       .  A
C2074      C2099   1.483       .  S
O2076      C2092   1.289       .  A
O2076     Zn2082   2.040       .  S
O2078     Cd2085   2.226       .  S
O2079      C2097   1.277       .  A
O2079     Cd2088   2.224       .  S
O2080     Cd2084   2.160       .  S
O2081     Cd2084   2.097   1_545  S
Zn2082     O2093   2.103       .  S
Zn2082     O2095   1.882       .  S
Zn2082     O2087   1.862       .  S
O2083      C2094   1.271       .  A
O2083     Cd2088   2.285       .  S
Cd2084     O2086   2.005   1_565  S
Cd2085     O2089   2.209       .  S
Cd2085     O2098   2.186       .  S
Cd2088     O2090   2.275       .  S
O2089      C2096   1.270       .  A
C2091      O2095   1.241       .  A
C2097      C2105   1.487       .  S
C2099      N2100   1.400       .  A
C2099      N2104   1.316       .  A
N2100      C2101   1.395       .  A
C2101      N2102   1.384       .  A
N2102      C2103   1.386       .  A
C2103      N2104   1.320       .  A
C2103      C2127   1.446       .  S
C2105      N2106   1.341       .  A
C2105      N2110   1.378       .  A
N2106      C2107   1.335       .  A
C2107      N2108   1.399       .  A
C2107      C2150   1.522       .  S
N2108      C2109   1.406       .  A
C2109      N2110   1.387       .  A
O2111      C2127   1.270       .  A
O2111     Zn2117   2.004       .  S
C2112      O2125   1.263       .  A
O2113      C2126   1.312       .  A
O2113     Cd2120   2.287       .  S
O2114      C2132   1.255       .  A
O2114     Cd2123   2.065       .  S
O2115      C2129   1.276       .  A
O2115     Cd2119   2.005       .  S
O2116     Cd2119   2.122       .  S
Zn2117     O2128   2.028       .  S
Zn2117     O2130   1.835       .  S
Zn2117     O2122   1.875   1_565  S
O2118      C2129   1.266       .  A
O2118     Cd2123   2.267       .  S
Cd2119     O2121   2.083       .  S
Cd2120     O2124   2.273       .  S
Cd2120     O2133   2.212   1_565  S
Cd2120     O2122   1.954   1_565  S
Cd2123     O2125   2.269       .  S
O2124      C2131   1.288       .  A
C2126      O2130   1.243       .  A
C2129      C2159   1.442       .  S
O2134      C2150   1.291       .  A
O2134     Zn2140   2.295   1_565  S
C2135      O2148   1.276       .  A
O2136      C2149   1.306       .  A
O2136     Cd2143   2.219   1_565  S
O2137      C2155   1.266       .  A
O2137     Cd2146   2.182       .  S
O2138      C2152   1.302       .  A
O2138     Cd2142   2.281       .  S
O2139     Cd2142   2.130       .  S
Zn2140     O2151   2.279       .  S
Zn2140     O2153   2.000   1_545  S
Zn2140     O2145   2.012       .  S
O2141      C2152   1.286       .  A
O2141     Cd2146   2.343       .  S
Cd2142     O2144   2.045       .  S
Cd2143     O2147   2.185   1_545  S
Cd2143     O2156   2.188       .  S
Cd2143     O2145   2.022       .  S
Cd2146     O2148   2.335       .  S
O2147      C2154   1.266       .  A
C2149      O2153   1.258       .  A
C2152      C2165   1.541       .  S
C2157      N2158   1.318       .  A
C2157      N2162   1.401       .  A
C2157      C2242   1.496       .  S
N2158      C2159   1.327       .  A
C2159      N2160   1.382       .  A
N2160      C2161   1.380       .  A
C2161      N2162   1.396       .  A
C2163      N2164   1.341       .  A
C2163      N2168   1.377       .  A
C2163      C2265   1.489       .  S
N2164      C2165   1.343       .  A
C2165      N2166   1.402       .  A
N2166      C2167   1.414       .  A
C2167      N2168   1.381       .  A
O2169      C2185   1.293       .  A
O2169     Zn2175   2.276       .  S
C2170      O2186   1.284       .  A
O2171     Cd2178   2.234       .  S
O2172      C2190   1.271       .  A
O2172     Cd2181   1.949       .  S
O2173     Cd2177   2.261       .  S
O2174      C2185   1.279       .  A
O2174     Cd2177   2.235       .  S
Zn2175     O2186   2.246       .  S
Zn2175     O2188   2.039       .  S
Zn2175     O2180   1.966       .  S
O2176      C2187   1.260       .  A
O2176     Cd2181   2.277       .  S
Cd2177     O2179   1.916       .  S
Cd2177     O2180   1.795       .  S
Cd2178     O2182   2.295       .  S
Cd2178     O2191   2.515   1_455  S
Cd2181     O2183   2.181       .  S
O2182      C2189   1.316       .  A
C2184      O2188   1.263       .  A
C2185      C2217   1.523       .  S
C2190      O2191   1.314       .  A
O2192      C2208   1.274   1_655  A
O2192     Zn2198   2.184       .  S
C2193      O2209   1.273       .  A
C2193      O2206   1.275       .  A
O2194     Cd2201   2.184       .  S
O2195     Cd2204   1.908       .  S
O2196     Cd2200   2.286       .  S
O2197     Cd2200   2.259       .  S
Zn2198     O2209   2.225       .  S
Zn2198     O2211   2.029       .  S
Zn2198     O2203   2.032       .  S
O2199      C2210   1.277   1_655  A
O2199     Cd2204   2.056       .  S
Cd2200     O2202   2.130       .  S
Cd2201     O2205   2.139       .  S
Cd2201     O2214   2.145       .  S
O2202      C2212   1.260       .  A
O2203     Cd2204   1.975       .  S
Cd2204     O2206   2.029       .  S
O2205      C2212   1.288       .  A
C2207      O2211   1.260       .  A
C2212      C2225   1.455       .  S
C2213      O2214   1.272       .  A
C2215      N2216   1.334       .  A
C2215      N2220   1.369       .  A
C2215      C2248   1.476       .  S
N2216      C2217   1.333       .  A
C2217      N2218   1.394       .  A
N2218      C2219   1.408       .  A
C2219      N2220   1.382       .  A
C2221      N2222   1.404       .  A
C2221      N2226   1.343       .  A
C2221      C2271   1.507       .  S
N2222      C2223   1.395       .  A
C2223      N2224   1.366       .  A
N2224      C2225   1.372       .  A
C2225      N2226   1.344       .  A
O2227      C2243   1.289       .  A
O2227     Zn2233   2.013       .  S
C2228      C2270   1.505       .  S
C2228      O2244   1.282       .  A
C2228      O2241   1.282       .  A
O2229      C2242   1.285       .  A
O2229     Cd2236   2.191       .  S
O2230      C2248   1.269       .  A
O2230     Cd2239   2.266       .  S
O2231      C2245   1.287       .  A
O2231     Cd2235   2.145       .  S
O2232      C2243   1.284       .  A
O2232     Cd2235   2.115       .  S
Zn2233     O2244   2.134       .  S
Zn2233     O2246   1.883       .  S
Zn2233     O2238   1.881       .  S
O2234      C2245   1.277       .  A
O2234     Cd2239   2.279       .  S
Cd2235     O2237   1.998       .  S
Cd2235     O2238   1.969       .  S
Cd2236     O2240   2.168       .  S
Cd2236     O2249   2.090       .  S
Cd2236     O2238   2.045       .  S
O2237      C2247   1.247       .  A
O2238     Cd2239   2.106       .  S
Cd2239     O2241   2.318       .  S
O2240      C2247   1.267       .  A
C2242      O2246   1.234       .  A
C2248      O2249   1.284       .  A
O2250      C2266   1.269       .  A
O2250     Zn2256   2.082       .  S
C2251      O2267   1.271   1_554  A
C2251      O2264   1.285   1_554  A
O2252      C2265   1.302       .  A
O2252     Cd2259   2.236       .  S
O2253      C2271   1.238       .  A
O2253     Cd2262   1.938       .  S
O2254      C2268   1.280       .  A
O2254     Cd2258   2.082       .  S
O2255      C2266   1.286       .  A
O2255     Cd2258   2.132       .  S
Zn2256     O2267   2.098       .  S
Zn2256     O2269   2.034       .  S
Zn2256     O2261   1.893       .  S
O2257      C2268   1.290       .  A
O2257     Cd2262   2.084       .  S
Cd2258     O2260   2.007       .  S
Cd2258     O2261   1.956       .  S
Cd2259     O2263   2.204       .  S
Cd2259     O2272   2.245       .  S
Cd2259     O2261   2.140       .  S
O2260      C2270   1.247       .  A
O2261     Cd2262   1.942       .  S
Cd2262     O2264   2.153       .  S
O2263      C2270   1.273       .  A
C2265      O2269   1.265       .  A
C2271      O2272   1.289       .  A
